                                   MODFLOW 6
                U.S. GEOLOGICAL SURVEY MODULAR HYDROLOGIC MODEL
                            VERSION 6.3.0 03/08/2022

   MODFLOW 6 compiled Mar 10 2022 13:40:29 with Intel(R) Fortran Intel(R) 64
   Compiler Classic for applications running on Intel(R) 64, Version 2021.5.0
                             Build 20211109_000000

This software has been approved for release by the U.S. Geological 
Survey (USGS). Although the software has been subjected to rigorous 
review, the USGS reserves the right to update the software as needed 
pursuant to further analysis and review. No warranty, expressed or 
implied, is made by the USGS or the U.S. Government as to the 
functionality of the software and related material nor shall the 
fact of release constitute any such warranty. Furthermore, the 
software is released on condition that neither the USGS nor the U.S. 
Government shall be held liable for any damages resulting from its 
authorized or unauthorized use. Also refer to the USGS Water 
Resources Software User Rights Notice for complete use, copyright, 
and distribution information.


As a work of the United States Government, this USGS product is 
in the public domain within the United States. You can copy, 
modify, distribute, and perform the work, even for commercial 
purposes, all without asking permission. Additionally, USGS 
waives copyright and related rights in the work worldwide 
through CC0 1.0 Universal Public Domain Dedication 
(https://creativecommons.org/publicdomain/zero/1.0/).

The following GNU Lesser General Public License (LGPL) libraries
are used in this USGS product:

    SPARSKIT version 2.0
      ilut, luson, and qsplit 
      (https://www-users.cse.umn.edu/~saad/software/SPARSKIT/)

    RCM - Reverse Cuthill McKee Ordering
      (https://people.math.sc.edu/Burkardt/f_src/rcm/rcm.html)

    BLAS - Basic Linear Algebra Subprograms Level 1
      (https://people.math.sc.edu/Burkardt/f_src/blas1_d/blas1_d.html)

    SPARSEKIT - Sparse Matrix Utility Package
      amux, dperm, dvperm, rperm, and cperm
      (https://people.sc.fsu.edu/~jburkardt/f77_src/sparsekit/sparsekit.html)

The following BSD-3 License libraries are used in this USGS product:

    Modern Fortran DAG Library
      Copyright (c) 2018, Jacob Williams
      All rights reserved.
      (https://github.com/jacobwilliams/daglib)

MODFLOW 6 compiler options: -Isrc/libmf6core.a.p -Isrc -I../src
-Isrc/libmf6_external.a.p -warn general -warn truncated_source -stand=f08 -g
-traceback -O2 -g -fpe0 -diag-disable:7416 -diag-disable:7025
-diag-disable:5268 -module src/libmf6core.a.p
-gen-dep=src/libmf6core.a.p/Utilities_compilerversion.F90.o
-gen-depformat=make -o src/libmf6core.a.p/Utilities_compilerversion.F90.o -c

System command used to initiate simulation:
mf6

MODFLOW was compiled using uniform precision.

Real Variables
  KIND: 8
  TINY (smallest non-zero value):    2.225074-308
  HUGE (largest value):    1.797693+308
  PRECISION: 15
  BIT SIZE: 64

Integer Variables
  KIND: 4
  HUGE (largest value): 2147483647
  BIT SIZE: 32

Long Integer Variables
  KIND: 8
  HUGE (largest value): 9223372036854775807
  BIT SIZE: 64

Logical Variables
  KIND: 4
  BIT SIZE: 32
 

 OPENED mfsim.nam
 FILE TYPE:NAM   UNIT 1001   STATUS:OLD                 
 FORMAT:FORMATTED              ACCESS:SEQUENTIAL          
 ACTION:READ                

 # File generated by Flopy version 3.3.6 on 10/15/2022 at 07:03:54.

 READING SIMULATION OPTIONS
 END OF SIMULATION OPTIONS

 READING SIMULATION TIMING

 OPENED project.tdis
 FILE TYPE:TDIS   UNIT 1002   STATUS:OLD                 
 FORMAT:FORMATTED              ACCESS:SEQUENTIAL          
 ACTION:READ                


 TDIS -- TEMPORAL DISCRETIZATION PACKAGE,
 VERSION 1 : 11/13/2014 - INPUT READ FROM UNIT 1002
 # File generated by Flopy version 3.3.6 on 10/15/2022 at 07:03:54.
 PROCESSING TDIS OPTIONS
    SIMULATION TIME UNIT IS DAYS
 END OF TDIS OPTIONS
 PROCESSING TDIS DIMENSIONS
    1 STRESS PERIOD(S) IN SIMULATION
 END OF TDIS DIMENSIONS
 PROCESSING TDIS PERIODDATA


 STRESS PERIOD     LENGTH       TIME STEPS     MULTIPLIER FOR DELT
 ----------------------------------------------------------------------------
        1         1.000000          1                    1.000
 END OF TDIS PERIODDATA
 END OF SIMULATION TIMING

 READING SIMULATION MODELS
    GWF6 model PROJECT will be created as model 1
 END OF SIMULATION MODELS

 READING SIMULATION EXCHANGES
 END OF SIMULATION EXCHANGES

 READING SOLUTIONGROUP

 Creating solution: SLN_1           

 OPENED project.ims
 FILE TYPE:IMS   UNIT 1013   STATUS:OLD                 
 FORMAT:FORMATTED              ACCESS:SEQUENTIAL          
 ACTION:READ                

 END OF SIMULATION SOLUTIONGROUP

PROCESSING MODEL CONNECTIONS

 IMS -- ITERATIVE MODEL SOLUTION PACKAGE, VERSION 6, 4/28/2017
         INPUT READ FROM UNIT 1013
 # File generated by Flopy version 3.3.6 on 10/15/2022 at 07:03:54.

 PROCESSING IMS OPTIONS
 END OF IMS OPTIONS

 PROCESSING IMS NONLINEAR
 END OF IMS NONLINEAR DATA
 ***UNDER-RELAXATION WILL NOT BE USED***
 
 ***IMS LINEAR SOLVER WILL BE USED***

 IMSLINEAR -- UNSTRUCTURED LINEAR SOLUTION PACKAGE, VERSION 8, 04/28/2017

 PROCESSING LINEAR DATA
 END OF LINEAR DATA
 
 An asymmetric matrix will be solved

 OUTER ITERATION CONVERGENCE CRITERION    (DVCLOSE) =    0.100000E-02
 MAXIMUM NUMBER OF OUTER ITERATIONS        (MXITER) = 200
 SOLVER PRINTOUT INDEX                     (IPRIMS) = 2
 NONLINEAR ITERATION METHOD            (NONLINMETH) = 0
 LINEAR SOLUTION METHOD                   (LINMETH) = 1

       SOLUTION BY THE BICONJUGATE-GRADIENT STABILIZED METHOD
 ------------------------------------------------------------------
 MAXIMUM OF 200 CALLS OF SOLUTION ROUTINE
 MAXIMUM OF 100 INTERNAL ITERATIONS PER CALL TO SOLUTION ROUTINE
 LINEAR ACCELERATION METHOD            = BCGS      
 MATRIX PRECONDITIONING TYPE           = INCOMPLETE LU       
 MATRIX SCALING APPROACH               = NO SCALING          
 MATRIX REORDERING APPROACH            = ORIGINAL ORDERING        
 NUMBER OF ORTHOGONALIZATIONS          = 0
 HEAD CHANGE CRITERION FOR CLOSURE     =    0.10000E-02
 RESIDUAL CHANGE CRITERION FOR CLOSURE =    0.10000E+00
 RESIDUAL CONVERGENCE OPTION           = 0
 RESIDUAL CONVERGENCE NORM             = INFINITY NORM   
 RELAXATION FACTOR                     =    0.00000E+00



 
    Solving:  Stress period:     1    Time step:     1
 
1
                            STRESS PERIOD NO. 1, LENGTH =   1.000000    
                            -----------------------------------------------
                            NUMBER OF TIME STEPS = 1
                            MULTIPLIER FOR DELT =     1.000
                            INITIAL TIME STEP SIZE =   1.000000    



 PSEUDO-TRANSIENT CONTINUATION WILL BE APPLIED TO MODEL 1 ("PROJECT") DURING THIS TIME STEP

 SLN_1 OUTER ITERATION SUMMARY
 ----------------------------------------------------------------------------------------------------------
                                OUTER      INNER                    STEP   MAXIMUM CHANGE MODEL-(CELLID) OR
 OUTER ITERATION STEP       ITERATION  ITERATION  MAXIMUM CHANGE SUCCESS             MODEL-PACKAGE-(NUMBER)
 ----------------------------------------------------------------------------------------------------------
 Model                              1         10      -9.0373250                               1_GWF-(1,48)
 Model                              2         44      -3.4506247                             1_GWF-(1,1435)
 Model                              3         48      -2.4096132                             1_GWF-(1,1435)
 Model                              4         41     -0.79858055                             1_GWF-(1,1435)
 Model                              5          6 -2.47944441E-02                             1_GWF-(1,1435)
 Model                              6          1  4.00085308E-04       *                     1_GWF-(3,1694)
 Package                            6            -4.46437243E-04       *            1_GWF-SFR_0-(168)-stage
 ----------------------------------------------------------------------------------------------------------


 6 CALLS TO NUMERICAL SOLUTION IN TIME STEP 1 STRESS PERIOD 1
 150 TOTAL ITERATIONS

 SLN_1 INNER ITERATION SUMMARY
 --------------------------------------------------------------------------------------------------------------------------------------
      TOTAL      OUTER      INNER                                                            MAXIMUM                                   
  ITERATION  ITERATION  ITERATION  MAXIMUM CHANGE      MAXIMUM CHANGE MODEL-(CELLID)        RESIDUAL    MAXIMUM RESIDUAL MODEL-(CELLID)
 --------------------------------------------------------------------------------------------------------------------------------------
          1          1          1      -9.0362082                       1_GWF-(1,48)       86.970166                     1_GWF-(2,2019)
          2          1          2     -0.96095922                       1_GWF-(2,52)       35.306132                     1_GWF-(2,2019)
          3          1          3     -0.56065848                       1_GWF-(3,52)       9.2652453                       1_GWF-(2,52)
          4          1          4     -0.17436420                       1_GWF-(2,52)       2.7701115                     1_GWF-(2,2096)
          5          1          5 -5.90889973E-02                       1_GWF-(2,54)       1.1725484                      1_GWF-(2,125)
          6          1          6 -1.27843135E-02                       1_GWF-(2,56)     -0.35139677                     1_GWF-(2,2188)
          7          1          7  7.18919004E-03                     1_GWF-(1,2188)      0.25021161                      1_GWF-(2,125)
          8          1          8 -2.80934720E-03                     1_GWF-(1,1804)      0.10421260                     1_GWF-(1,2206)
          9          1          9 -1.95968428E-03                     1_GWF-(1,1726)  7.96561957E-02                     1_GWF-(1,2185)
         10          1         10 -7.38929960E-04                     1_GWF-(1,1726)  3.30041062E-02                     1_GWF-(1,2184)
         11          2          1      -1.1365718                     1_GWF-(3,1435)       30.907707                     1_GWF-(2,2019)
         12          2          2     -0.57330829                       1_GWF-(3,52)       16.272412                     1_GWF-(2,2019)
         13          2          3     -0.50146077                       1_GWF-(3,52)       7.5299848                     1_GWF-(2,2096)
         14          2          4     -0.24953279                       1_GWF-(2,54)      -5.3598762                     1_GWF-(1,2200)
         15          2          5      0.22012608                      1_GWF-(3,144)      -4.4111056                     1_GWF-(1,2200)
         16          2          6      0.19000442                      1_GWF-(3,144)      -3.3579302                     1_GWF-(2,2194)
         17          2          7      0.20165842                       1_GWF-(2,14)      -2.4448404                     1_GWF-(2,2179)
         18          2          8      0.12975622                       1_GWF-(2,14)       2.0213354                     1_GWF-(2,1568)
         19          2          9     -0.10793213                      1_GWF-(3,675)       1.6629011                     1_GWF-(2,1568)
         20          2         10     -0.12010292                     1_GWF-(1,1435)       1.2443339                     1_GWF-(2,1568)
         21          2         11     -0.13351041                     1_GWF-(1,1435)      0.89494594                     1_GWF-(2,1804)
         22          2         12     -0.11832065                     1_GWF-(1,1435)      0.69011479                     1_GWF-(2,2194)
         23          2         13     -0.10625119                     1_GWF-(1,1435)      0.69698979                     1_GWF-(1,2203)
         24          2         14 -8.40391107E-02                     1_GWF-(1,1435)      0.62154825                     1_GWF-(2,2194)
         25          2         15  5.21399508E-02                     1_GWF-(1,1422)      0.65884250                     1_GWF-(1,2203)
         26          2         16  3.62795755E-02                     1_GWF-(1,1422)      0.42231776                     1_GWF-(2,1699)
         27          2         17  3.06872087E-02                     1_GWF-(1,1422)      0.44260127                     1_GWF-(1,2203)
         28          2         18 -2.19256810E-02                     1_GWF-(1,1027)      0.34664164                     1_GWF-(2,1048)
         29          2         19 -2.03227876E-02                     1_GWF-(2,1123)      0.31774173                     1_GWF-(2,1048)
         30          2         20 -1.22360697E-02                     1_GWF-(2,1290)      0.30046598                     1_GWF-(2,1048)
         31          2         21 -1.35709291E-02                     1_GWF-(1,1421)      0.28497023                     1_GWF-(2,1320)
         32          2         22 -8.01277888E-03                     1_GWF-(1,1421)      0.27630180                     1_GWF-(2,1320)
         33          2         23 -2.40670130E-02                     1_GWF-(1,1421)      0.29135089                     1_GWF-(1,2186)
         34          2         24  6.75662078E-04                      1_GWF-(3,128)      0.25008338                     1_GWF-(2,1320)
         35          2         25  3.52510149E-03                     1_GWF-(1,1421)      0.25508456                     1_GWF-(2,1699)
         36          2         26  1.44333087E-02                     1_GWF-(1,1421)      0.27009062                     1_GWF-(2,1320)
         37          2         27  2.55783208E-02                     1_GWF-(1,1421)      0.29869395                     1_GWF-(2,1320)
         38          2         28  5.61860359E-02                     1_GWF-(1,1421)      0.36064980                     1_GWF-(2,1320)
         39          2         29      0.13575058                     1_GWF-(1,1421)      0.51099454                     1_GWF-(2,1320)
         40          2         30      0.47855564                     1_GWF-(1,1421)       1.0388876                     1_GWF-(2,1320)
         41          2         31      -3.8098952                     1_GWF-(1,1421)      -3.1643586                     1_GWF-(2,1320)
         42          2         32       2.3737417                     1_GWF-(1,1421)     -0.54430493                     1_GWF-(2,1320)
         43          2         33      0.24356627                     1_GWF-(1,1421)     -0.27521775                     1_GWF-(2,1320)
         44          2         34  9.36469392E-02                     1_GWF-(1,1421)     -0.17127792                     1_GWF-(2,1320)
         45          2         35  4.80454275E-02                     1_GWF-(1,1421)     -0.11777085                     1_GWF-(2,1320)
         46          2         36  3.54172562E-02                     1_GWF-(1,1421) -7.80781533E-02                     1_GWF-(2,1320)
         47          2         37  1.97497443E-02                     1_GWF-(1,1421) -5.57989953E-02                     1_GWF-(2,1320)
         48          2         38  1.54733155E-02                     1_GWF-(1,1421) -3.81744654E-02                     1_GWF-(2,1699)
         49          2         39  3.22076834E-02                     1_GWF-(1,1421) -3.66492456E-02                     1_GWF-(1,2185)
         50          2         40 -2.10794090E-02                     1_GWF-(1,1421) -2.57808274E-02                     1_GWF-(2,1699)
         51          2         41  3.50607219E-03                     1_GWF-(1,1421) -2.17299297E-02                     1_GWF-(2,1699)
         52          2         42  1.14012972E-02                      1_GWF-(2,960) -1.99603180E-02                     1_GWF-(1,2185)
         53          2         43 -2.05834666E-03                     1_GWF-(1,1421) -9.46298137E-03                     1_GWF-(2,1320)
         54          2         44  9.68794815E-04                     1_GWF-(2,1175) -1.00488690E-02                     1_GWF-(2,2142)
         55          3          1     -0.31871240                     1_GWF-(1,1435)      -3.7743564                     1_GWF-(2,1124)
         56          3          2     -0.13118516                     1_GWF-(1,1435)       2.0931061                     1_GWF-(2,2236)
         57          3          3     -0.15773547                     1_GWF-(1,1435)      -1.3928685                     1_GWF-(2,2068)
         58          3          4     -0.11801402                     1_GWF-(1,1435)     -0.93118039                     1_GWF-(1,2200)
         59          3          5     -0.12605501                     1_GWF-(1,1435)     -0.93479813                     1_GWF-(2,2068)
         60          3          6     -0.13882878                     1_GWF-(1,1435)      0.71400849                     1_GWF-(2,1804)
         61          3          7     -0.20327341                     1_GWF-(1,1435)     -0.64801481                     1_GWF-(2,2068)
         62          3          8     -0.16012018                     1_GWF-(1,1435)      0.53244445                     1_GWF-(2,1726)
         63          3          9     -0.14425911                     1_GWF-(1,1435)      0.45775220                     1_GWF-(2,1804)
         64          3         10     -0.16254728                     1_GWF-(1,1435)      0.39662861                     1_GWF-(2,1699)
         65          3         11     -0.18732760                     1_GWF-(1,1435)      0.38383035                     1_GWF-(2,2185)
         66          3         12     -0.14646994                     1_GWF-(1,1435)      0.35007307                     1_GWF-(2,1699)
         67          3         13     -0.13751586                     1_GWF-(1,1435)      0.31985327                     1_GWF-(2,1699)
         68          3         14     -0.10407458                     1_GWF-(1,1435)      0.29804937                     1_GWF-(2,1699)
         69          3         15 -7.81688356E-02                     1_GWF-(1,1435)      0.26601733                     1_GWF-(2,1699)
         70          3         16 -4.58852122E-02                     1_GWF-(1,1435)      0.25194994                     1_GWF-(2,1699)
         71          3         17 -3.32269748E-02                     1_GWF-(1,1421)      0.24212147                     1_GWF-(2,2186)
         72          3         18 -1.18965105E-02                     1_GWF-(1,1421)      0.22042999                     1_GWF-(2,1699)
         73          3         19 -6.18389090E-02                     1_GWF-(1,1421)      0.32288183                     1_GWF-(2,2185)
         74          3         20 -6.92850620E-03                     1_GWF-(1,1421)      0.17744899                     1_GWF-(2,1699)
         75          3         21 -6.25342967E-02                     1_GWF-(1,1421)      0.27128120                     1_GWF-(2,2142)
         76          3         22 -4.64346703E-03                     1_GWF-(1,1421)      0.13657273                     1_GWF-(2,1699)
         77          3         23 -1.04688031E-02                     1_GWF-(1,1421)      0.14820418                     1_GWF-(3,2118)
         78          3         24 -3.05517036E-03                     1_GWF-(1,1421)      0.12910025                     1_GWF-(2,1699)
         79          3         25 -1.56860746E-03                     1_GWF-(1,1421)      0.12714495                     1_GWF-(2,1699)
         80          3         26  1.39883406E-03                     1_GWF-(1,1421)      0.12843881                     1_GWF-(2,1699)
         81          3         27     -0.16226740                     1_GWF-(1,1421)      0.21791926                     1_GWF-(2,2184)
         82          3         28  2.67109865E-03                     1_GWF-(2,1102)  4.28689514E-02                     1_GWF-(2,2184)
         83          3         29  3.85819519E-03                      1_GWF-(2,278)  4.93823052E-02                     1_GWF-(2,2105)
         84          3         30  6.49988305E-03                      1_GWF-(2,276)  4.73061266E-02                     1_GWF-(2,1063)
         85          3         31  1.01078161E-02                      1_GWF-(2,277)  5.41609467E-02                     1_GWF-(2,1063)
         86          3         32  2.07753961E-02                      1_GWF-(2,277)  6.75427989E-02                     1_GWF-(2,1063)
         87          3         33  7.05932875E-02                      1_GWF-(2,278)      0.11251106                     1_GWF-(2,1062)
         88          3         34      0.87153404                      1_GWF-(2,278)      0.65959757                     1_GWF-(2,1062)
         89          3         35      -1.2678217                      1_GWF-(2,278)     -0.13633281                     1_GWF-(2,2164)
         90          3         36      0.12941640                      1_GWF-(2,278) -5.06786250E-02                     1_GWF-(2,2164)
         91          3         37  3.20271478E-02                      1_GWF-(2,278) -3.22916518E-02                     1_GWF-(2,2164)
         92          3         38  1.54546296E-02                      1_GWF-(2,278) -1.93112823E-02                     1_GWF-(2,2164)
         93          3         39  8.18488142E-03                      1_GWF-(2,278) -1.34139465E-02                     1_GWF-(2,2164)
         94          3         40  4.84367446E-03                      1_GWF-(2,278) -9.23315106E-03                     1_GWF-(2,1062)
         95          3         41  2.98751501E-03                      1_GWF-(2,278) -7.26196243E-03                     1_GWF-(2,1063)
         96          3         42  2.06447269E-03                      1_GWF-(2,279) -5.99561421E-03                     1_GWF-(2,2106)
         97          3         43  1.80572565E-03                     1_GWF-(1,1435) -5.09582478E-03                     1_GWF-(2,2106)
         98          3         44  1.72485372E-03                     1_GWF-(1,1435) -4.23572501E-03                     1_GWF-(2,2141)
         99          3         45  1.72041359E-03                     1_GWF-(1,1435) -3.31052922E-03                     1_GWF-(2,2141)
        100          3         46  1.60799842E-03                     1_GWF-(1,1435) -2.44368264E-03                     1_GWF-(2,2142)
        101          3         47  1.15732415E-03                     1_GWF-(1,1435) -1.76165237E-03                     1_GWF-(2,1064)
        102          3         48  6.39282576E-04                     1_GWF-(1,1435) -1.41936359E-03                     1_GWF-(2,1063)
        103          4          1     -0.13071873                     1_GWF-(1,1435)      0.77826998                     1_GWF-(2,1435)
        104          4          2 -3.90681495E-02                     1_GWF-(1,1435)      0.37131571                     1_GWF-(2,1435)
        105          4          3 -4.68445470E-02                     1_GWF-(1,1435)      0.29644524                     1_GWF-(2,1435)
        106          4          4 -3.21524955E-02                     1_GWF-(1,1435)      0.20902678                     1_GWF-(2,1435)
        107          4          5 -3.41652263E-02                     1_GWF-(1,1435)      0.17892280                     1_GWF-(2,1435)
        108          4          6 -3.24792518E-02                     1_GWF-(1,1435)      0.14976560                     1_GWF-(2,1435)
        109          4          7 -5.22488689E-02                     1_GWF-(1,1435)      0.12407967                     1_GWF-(2,1435)
        110          4          8 -4.07225677E-02                     1_GWF-(1,1435)      0.11136076                     1_GWF-(2,1435)
        111          4          9 -4.17695422E-02                     1_GWF-(1,1435)  9.68078866E-02                     1_GWF-(2,1435)
        112          4         10 -5.34676401E-02                     1_GWF-(1,1435)  8.90884753E-02                     1_GWF-(2,1699)
        113          4         11 -6.80209457E-02                     1_GWF-(1,1435)  8.50188625E-02                     1_GWF-(2,1699)
        114          4         12 -6.23714374E-02                     1_GWF-(1,1435)  8.06810801E-02                     1_GWF-(2,1699)
        115          4         13 -5.53992255E-02                     1_GWF-(1,1435)  7.52537714E-02                     1_GWF-(2,1699)
        116          4         14 -4.54874562E-02                     1_GWF-(1,1435)  7.06652550E-02                     1_GWF-(2,1699)
        117          4         15 -3.84253215E-02                     1_GWF-(1,1435)  6.30407314E-02                     1_GWF-(2,1699)
        118          4         16 -3.19428031E-02                     1_GWF-(1,1435)  5.84306916E-02                     1_GWF-(2,1699)
        119          4         17 -2.25160423E-02                     1_GWF-(1,1435)  5.43254323E-02                     1_GWF-(2,1699)
        120          4         18 -1.26134964E-02                     1_GWF-(1,1435)  5.10268684E-02                     1_GWF-(2,1699)
        121          4         19  5.05655426E-03                     1_GWF-(1,1435)  5.33938392E-02                     1_GWF-(2,1699)
        122          4         20      0.10664556                     1_GWF-(1,1435)  3.87515612E-02                     1_GWF-(2,1807)
        123          4         21 -3.31733553E-03                     1_GWF-(1,1421)  2.89884255E-02                     1_GWF-(2,1699)
        124          4         22 -1.01909197E-02                     1_GWF-(1,1435)  2.73601873E-02                     1_GWF-(2,1699)
        125          4         23 -3.80277846E-03                     1_GWF-(1,1435)  2.57249700E-02                     1_GWF-(2,1699)
        126          4         24 -7.22608406E-03                     1_GWF-(1,1435)  2.34277452E-02                     1_GWF-(2,1699)
        127          4         25 -5.07337839E-03                     1_GWF-(1,1435)  2.18632571E-02                     1_GWF-(2,1699)
        128          4         26 -5.89471829E-03                     1_GWF-(1,1435)  2.00033044E-02                     1_GWF-(2,1699)
        129          4         27 -4.10557000E-03                     1_GWF-(1,1435)  1.86522804E-02                     1_GWF-(2,1699)
        130          4         28 -4.34140821E-03                     1_GWF-(1,1435)  1.71833419E-02                     1_GWF-(2,1699)
        131          4         29 -3.57996440E-03                     1_GWF-(1,1435)  1.58938176E-02                     1_GWF-(2,1699)
        132          4         30 -3.51308551E-03                     1_GWF-(1,1421)  1.45699088E-02                     1_GWF-(2,1699)
        133          4         31 -2.69888611E-03                     1_GWF-(1,1421)  1.35529827E-02                     1_GWF-(2,1699)
        134          4         32 -3.01376553E-03                     1_GWF-(1,1421)  1.24009549E-02                     1_GWF-(2,1699)
        135          4         33 -4.40985835E-03                     1_GWF-(1,1421)  1.07342640E-02                     1_GWF-(2,1699)
        136          4         34 -4.94535887E-03                     1_GWF-(1,1421)  8.84997971E-03                     1_GWF-(2,1699)
        137          4         35 -5.54639359E-03                     1_GWF-(1,1421)  6.74020636E-03                     1_GWF-(2,1699)
        138          4         36 -5.47822453E-03                     1_GWF-(1,1421)  4.64660660E-03                     1_GWF-(2,1699)
        139          4         37 -4.30153341E-03                     1_GWF-(1,1421) -3.47482655E-03                     1_GWF-(2,1435)
        140          4         38 -3.45896714E-03                     1_GWF-(1,1421) -3.57777922E-03                     1_GWF-(2,1435)
        141          4         39 -2.30516747E-03                     1_GWF-(1,1421) -3.56097477E-03                     1_GWF-(2,1435)
        142          4         40  1.51260463E-03                     1_GWF-(1,1435) -2.88979522E-03                     1_GWF-(2,1435)
        143          4         41 -6.49097879E-04                     1_GWF-(1,1421) -2.77495585E-03                     1_GWF-(2,1435)
        144          5          1 -1.55849272E-02                     1_GWF-(1,1435) -7.69554658E-02                     1_GWF-(2,1124)
        145          5          2 -2.94724537E-03                     1_GWF-(1,1435) -2.70158586E-02                     1_GWF-(2,1033)
        146          5          3 -2.50387771E-03                     1_GWF-(1,1435)  1.78781318E-02                     1_GWF-(2,1435)
        147          5          4 -1.48180036E-03                     1_GWF-(1,1435)  8.98512874E-03                     1_GWF-(2,1435)
        148          5          5 -1.30534331E-03                     1_GWF-(1,1435)  6.75703629E-03                     1_GWF-(2,1435)
        149          5          6 -9.71250153E-04                     1_GWF-(1,1435) -5.21123105E-03                     1_GWF-(1,2200)
        150          6          1  4.00085308E-04                     1_GWF-(3,1694) -8.51303390E-03                     1_GWF-(2,1124)
 --------------------------------------------------------------------------------------------------------------------------------------



 MEMORY MANAGER TOTAL STORAGE BY DATA TYPE, IN MEGABYTES
 -------------------------------
                    ALLOCATED   
 DATA TYPE           MEMORY     
 -------------------------------
 Character        1.59730000E-02
 Logical          4.40000000E-05
 Integer          2.0647160     
 Real             4.2434160     
 -------------------------------
 Total            6.3241490     
 -------------------------------


 
 Run end date and time (yyyy/mm/dd hh:mm:ss): 2022/10/15  7:03:55
 Elapsed run time:  0.270 Seconds
 Normal termination of simulation.
