                                   MODFLOW 6
                U.S. GEOLOGICAL SURVEY MODULAR HYDROLOGIC MODEL
                   VERSION 6.3.0 release candidate 07/30/2021
                               ***DEVELOP MODE***

  MODFLOW 6 compiled Oct 29 2021 13:12:44 with GFORTRAN compiler (ver. 9.2.0)

This software is preliminary or provisional and is subject to 
revision. It is being provided to meet the need for timely best 
science. The software has not received final approval by the U.S. 
Geological Survey (USGS). No warranty, expressed or implied, is made 
by the USGS or the U.S. Government as to the functionality of the 
software and related material nor shall the fact of release 
constitute any such warranty. The software is provided on the 
condition that neither the USGS nor the U.S. Government shall be held 
liable for any damages resulting from the authorized or unauthorized 
use of the software.


System command used to initiate simulation:
mf6

MODFLOW was compiled using uniform precision.

Real Variables
  KIND: 8
  TINY (smallest non-zero value):    2.225074-308
  HUGE (largest value):    1.797693+308
  PRECISION: 15
  BIT SIZE: 64

Integer Variables
  KIND: 4
  HUGE (largest value): 2147483647
  BIT SIZE: 32

Long Integer Variables
  KIND: 8
  HUGE (largest value): 9223372036854775807
  BIT SIZE: 64

Logical Variables
  KIND: 4
  BIT SIZE: 32


 OPENED mfsim.nam
 FILE TYPE:NAM   UNIT 1001   STATUS:OLD                 
 FORMAT:FORMATTED              ACCESS:SEQUENTIAL          
 ACTION:READ                

 # File generated by Flopy version 3.3.6 on 10/27/2022 at 08:48:21.

 READING SIMULATION OPTIONS
 END OF SIMULATION OPTIONS

 READING SIMULATION TIMING

 OPENED project.tdis
 FILE TYPE:TDIS   UNIT 1002   STATUS:OLD                 
 FORMAT:FORMATTED              ACCESS:SEQUENTIAL          
 ACTION:READ                


 TDIS -- TEMPORAL DISCRETIZATION PACKAGE,
 VERSION 1 : 11/13/2014 - INPUT READ FROM UNIT 1002
 # File generated by Flopy version 3.3.6 on 10/27/2022 at 08:48:21.
 PROCESSING TDIS OPTIONS
    SIMULATION TIME UNIT IS DAYS
 END OF TDIS OPTIONS
 PROCESSING TDIS DIMENSIONS
    1 STRESS PERIOD(S) IN SIMULATION
 END OF TDIS DIMENSIONS
 PROCESSING TDIS PERIODDATA


 STRESS PERIOD     LENGTH       TIME STEPS     MULTIPLIER FOR DELT
 ----------------------------------------------------------------------------
        1         1.000000          1                    1.000
 END OF TDIS PERIODDATA
 END OF SIMULATION TIMING

 READING SIMULATION MODELS
    GWF6 model PROJECT will be created as model 1
 END OF SIMULATION MODELS

 READING SIMULATION EXCHANGES
 END OF SIMULATION EXCHANGES

 READING SOLUTIONGROUP

 Creating solution: SLN_1           

 OPENED project.ims
 FILE TYPE:IMS   UNIT 1013   STATUS:OLD                 
 FORMAT:FORMATTED              ACCESS:SEQUENTIAL          
 ACTION:READ                

 END OF SIMULATION SOLUTIONGROUP

PROCESSING MODEL CONNECTIONS

 IMS -- ITERATIVE MODEL SOLUTION PACKAGE, VERSION 6, 4/28/2017
         INPUT READ FROM UNIT 1013
 # File generated by Flopy version 3.3.6 on 10/27/2022 at 08:48:21.

 PROCESSING IMS OPTIONS
 END OF IMS OPTIONS

 PROCESSING IMS NONLINEAR
 END OF IMS NONLINEAR DATA
 ***UNDER-RELAXATION WILL NOT BE USED***

 ***IMS LINEAR SOLVER WILL BE USED***

 IMSLINEAR -- UNSTRUCTURED LINEAR SOLUTION PACKAGE, VERSION 8, 04/28/2017

 PROCESSING LINEAR DATA
 END OF LINEAR DATA

 OUTER ITERATION CONVERGENCE CRITERION    (DVCLOSE) =    0.100000E-02
 MAXIMUM NUMBER OF OUTER ITERATIONS        (MXITER) = 200
 SOLVER PRINTOUT INDEX                     (IPRIMS) = 2
 NONLINEAR ITERATION METHOD            (NONLINMETH) = 0
 LINEAR SOLUTION METHOD                   (LINMETH) = 1

       SOLUTION BY THE BICONJUGATE-GRADIENT STABILIZED METHOD
 ------------------------------------------------------------------
 MAXIMUM OF 200 CALLS OF SOLUTION ROUTINE
 MAXIMUM OF 100 INTERNAL ITERATIONS PER CALL TO SOLUTION ROUTINE
 LINEAR ACCELERATION METHOD            = BCGS      
 MATRIX PRECONDITIONING TYPE           = INCOMPLETE LU       
 MATRIX SCALING APPROACH               = NO SCALING          
 MATRIX REORDERING APPROACH            = ORIGINAL ORDERING        
 NUMBER OF ORTHOGONALIZATIONS          = 0
 HEAD CHANGE CRITERION FOR CLOSURE     =    0.10000E-02
 RESIDUAL CHANGE CRITERION FOR CLOSURE =    0.10000E+00
 RESIDUAL CONVERGENCE OPTION           = 0
 RESIDUAL CONVERGENCE NORM             = INFINITY NORM   
 RELAXATION FACTOR                     =    0.00000E+00




    Solving:  Stress period:     1    Time step:     1

1
                            STRESS PERIOD NO. 1, LENGTH =   1.000000    
                            -----------------------------------------------
                            NUMBER OF TIME STEPS = 1
                            MULTIPLIER FOR DELT =     1.000
                            INITIAL TIME STEP SIZE =   1.000000    



 PSEUDO-TRANSIENT CONTINUATION WILL BE APPLIED TO MODEL 1 ("PROJECT") DURING THIS TIME STEP

 SLN_1 OUTER ITERATION SUMMARY
 ----------------------------------------------------------------------------------------------------------
                                OUTER      INNER                    STEP   MAXIMUM CHANGE MODEL-(CELLID) OR
 OUTER ITERATION STEP       ITERATION  ITERATION  MAXIMUM CHANGE SUCCESS             MODEL-PACKAGE-(NUMBER)
 ----------------------------------------------------------------------------------------------------------
 Model                              1         12      -9.0396065                             1_GWF-(1,5019)
 Model                              2         40      -6.8280191                             1_GWF-(1,4386)
 Model                              3         33      -3.0945289                             1_GWF-(1,4386)
 Model                              4         16     -0.35238800                             1_GWF-(1,4386)
 Model                              5          6  6.37545217E-03                             1_GWF-(3,5080)
 Model                              6          1  7.39110633E-04       *                     1_GWF-(3,5091)
 Package                            6                 -3052.8481                   1_GWF-SFR_0-(639)-inflow
 Model                              7          1  4.06681099E-04       *                     1_GWF-(1,4386)
 Package                            7                 -180.05024                   1_GWF-SFR_0-(639)-inflow
 Model                              8         14  1.94977607E-02                             1_GWF-(2,1198)
 Model                              9          1  4.64901667E-05       *                     1_GWF-(1,1582)
 Package                            9                 -120.95096                   1_GWF-SFR_0-(639)-inflow
 Model                             10          1  1.24569628E-04       *                     1_GWF-(1,3605)
 Package                           10                 -11.636247                   1_GWF-SFR_0-(639)-inflow
 Model                             11          1  9.55629302E-05       *                     1_GWF-(1,3605)
 Package                           11                 -4.4476602                   1_GWF-SFR_0-(639)-inflow
 Model                             12          1  2.02711975E-04       *                     1_GWF-(1,3605)
 Package                           12                  3.9120897                   1_GWF-SFR_0-(639)-inflow
 Model                             13          1  3.86866023E-05       *                     1_GWF-(1,1847)
 Package                           13                 -3.9746726                   1_GWF-SFR_0-(639)-inflow
 Model                             14          1  1.06288694E-04       *                     1_GWF-(1,3605)
 Package                           14                  4.8215299                   1_GWF-SFR_0-(639)-inflow
 Model                             15          1  4.25510062E-05       *                     1_GWF-(1,3605)
 Package                           15                 0.47847481                   1_GWF-SFR_0-(639)-inflow
 Model                             16          1  1.26089812E-04       *                     1_GWF-(1,3605)
 Package                           16                  1.2697197                   1_GWF-SFR_0-(639)-inflow
 Model                             17          1  2.92789280E-05       *                     1_GWF-(1,3605)
 Package                           17                -0.56721026                   1_GWF-SFR_0-(639)-inflow
 Model                             18          1  1.77893021E-04       *                     1_GWF-(1,3605)
 Package                           18                  1.7042522                   1_GWF-SFR_0-(639)-inflow
 Model                             19          1  2.11234715E-05       *                     1_GWF-(1,2459)
 Package                           19                -0.45444110                   1_GWF-SFR_0-(639)-inflow
 Model                             20          1  3.57906773E-04       *                     1_GWF-(1,3605)
 Package                           20                  1.6073728                   1_GWF-SFR_0-(639)-inflow
 Model                             21          1 -1.59213653E-05       *                     1_GWF-(2,5086)
 Package                           21                 0.53710006                   1_GWF-SFR_0-(293)-inflow
 Model                             22          1  3.78069457E-04       *                     1_GWF-(1,3605)
 Package                           22                  1.3904925                   1_GWF-SFR_0-(639)-inflow
 Model                             23          1  1.43518411E-05       *                     1_GWF-(2,5044)
 Package                           23                  1.3717160                   1_GWF-SFR_0-(639)-inflow
 Model                             24          1  1.06958813E-04       *                     1_GWF-(2,3626)
 Package                           24                -0.84269238                   1_GWF-SFR_0-(639)-inflow
 Model                             25          1  1.93898198E-05       *                     1_GWF-(1,4131)
 Package                           25                 -1.1975809                   1_GWF-SFR_0-(639)-inflow
 Model                             26          1  1.36528942E-04       *                     1_GWF-(1,3603)
 Package                           26                 0.63637224                   1_GWF-SFR_0-(639)-inflow
 Model                             27          1  4.66450013E-05       *                     1_GWF-(1,4399)
 Package                           27                 0.91559167                   1_GWF-SFR_0-(639)-inflow
 Model                             28          1  4.03276300E-05       *                     1_GWF-(2,4386)
 Package                           28                -0.19192743                   1_GWF-SFR_0-(639)-inflow
 Model                             29          1  1.67297797E-05       *                     1_GWF-(2,4396)
 Package                           29                 -1.3639096                   1_GWF-SFR_0-(639)-inflow
 Model                             30          1  1.99089829E-05       *                     1_GWF-(2,3626)
 Package                           30                 0.52404962                   1_GWF-SFR_0-(639)-inflow
 Model                             31          1  1.04878666E-05       *                     1_GWF-(2,3622)
 Package                           31            -2.13673394E-02                   1_GWF-SFR_0-(639)-inflow
 Model                             32          1  2.64163957E-05       *                     1_GWF-(2,3619)
 Package                           32             9.70543956E-02                   1_GWF-SFR_0-(639)-inflow
 Model                             33          1  7.72475039E-06       *                     1_GWF-(2,3622)
 Package                           33                -0.26322454                   1_GWF-SFR_0-(639)-inflow
 Model                             34          1  5.64641481E-05       *                     1_GWF-(1,3605)
 Package                           34                 0.17335188                   1_GWF-SFR_0-(639)-inflow
 Model                             35          1  5.43190195E-06       *                     1_GWF-(2,3622)
 Package                           35                -0.36281056                   1_GWF-SFR_0-(639)-inflow
 Model                             36          1  2.88506140E-04       *                     1_GWF-(1,3605)
 Package                           36                 0.24567517                   1_GWF-SFR_0-(639)-inflow
 Model                             37          1 -3.79039840E-06       *                     1_GWF-(3,5068)
 Package                           37                -0.54982467                   1_GWF-SFR_0-(639)-inflow
 Model                             38          1  2.55123928E-05       *                     1_GWF-(2,1966)
 Package                           38             6.07992253E-03                   1_GWF-SFR_0-(639)-inflow
 Model                             39          1  7.22675388E-06       *                     1_GWF-(2,5068)
 Package                           39                 0.30528638                   1_GWF-SFR_0-(639)-inflow
 Model                             40          1  1.39818782E-05       *                     1_GWF-(1,4399)
 Package                           40                -0.10698712                   1_GWF-SFR_0-(639)-inflow
 Model                             41          1  7.60566267E-06       *                     1_GWF-(2,4388)
 Package                           41                -0.49203572                   1_GWF-SFR_0-(639)-inflow
 Model                             42          1  6.05274398E-06       *                     1_GWF-(1,1848)
 Package                           42                 0.19350913                   1_GWF-SFR_0-(639)-inflow
 Model                             43          1  2.89349434E-06       *                     1_GWF-(2,1461)
 Package                           43                 0.11316948                   1_GWF-SFR_0-(639)-inflow
 Model                             44          1  8.43608044E-06       *                     1_GWF-(2,1704)
 Package                           44            -5.43752462E-02                   1_GWF-SFR_0-(639)-inflow
 Model                             45          1  1.79424683E-06       *                     1_GWF-(1,5070)
 Package                           45            -7.56775272E-03                   1_GWF-SFR_0-(293)-inflow
 Model                             46          1  4.91120545E-05       *                     1_GWF-(1,1848)
 Package                           46            -2.34186771E-02                   1_GWF-SFR_0-(639)-inflow
 Model                             47          1  2.15591546E-06       *                     1_GWF-(1,5070)
 Package                           47            -3.72784458E-02                   1_GWF-SFR_0-(639)-inflow
 Model                             48          1  7.16824307E-06       *                     1_GWF-(3,2604)
 Package                           48            -4.64909303E-02                   1_GWF-SFR_0-(639)-inflow
 Model                             49          1 -1.80351844E-06       *                     1_GWF-(1,5070)
 Package                           49            -7.48653357E-02                   1_GWF-SFR_0-(639)-inflow
 Model                             50          1  1.58292414E-05       *                     1_GWF-(2,1966)
 Package                           50             1.67988765E-02                   1_GWF-SFR_0-(639)-inflow
 Model                             51          1  1.41689971E-06       *                     1_GWF-(2,4776)
 Package                           51             5.82043339E-02                   1_GWF-SFR_0-(639)-inflow
 Model                             52          1  9.20273880E-06       *                     1_GWF-(2,2604)
 Package                           52            -1.51764285E-02                   1_GWF-SFR_0-(639)-inflow
 Model                             53          1 -3.89396298E-06       *                     1_GWF-(2,4776)
 Package                           53                -0.25746041                   1_GWF-SFR_0-(639)-inflow
 Model                             54          1  2.91434020E-06       *                     1_GWF-(1,1966)
 Package                           54             9.86874802E-02                   1_GWF-SFR_0-(639)-inflow
 Model                             55          1  1.48959812E-06       *                     1_GWF-(2,1461)
 Package                           55                 0.10120136                   1_GWF-SFR_0-(639)-inflow
 Model                             56          1  3.49280607E-06       *                     1_GWF-(2,1704)
 Package                           56            -3.14283622E-02                   1_GWF-SFR_0-(639)-inflow
 Model                             57          1  8.62957279E-07       *                     1_GWF-(1,1582)
 Package                           57            -7.22935013E-03                   1_GWF-SFR_0-(639)-inflow
 Model                             58          1  1.68758312E-05       *                     1_GWF-(1,1848)
 Package                           58            -9.11217425E-03                   1_GWF-SFR_0-(639)-inflow
 Model                             59          1  9.37558964E-07       *                     1_GWF-(1,5070)
 Package                           59            -1.58296000E-02                   1_GWF-SFR_0-(639)-inflow
 Model                             60          1  4.92702306E-06       *                     1_GWF-(2,1581)
 Package                           60            -8.61742170E-03                   1_GWF-SFR_0-(639)-inflow
 Model                             61          1 -1.08385624E-06       *                     1_GWF-(1,5070)
 Package                           61            -4.49676276E-02                   1_GWF-SFR_0-(639)-inflow
 Model                             62          1  1.43614045E-05       *                     1_GWF-(2,1966)
 Package                           62             8.76171328E-03                   1_GWF-SFR_0-(639)-inflow
 Model                             63          1  2.07279763E-06       *                     1_GWF-(2,4776)
 Package                           63             9.95419680E-02                   1_GWF-SFR_0-(639)-inflow
 Model                             64          1  2.53086909E-06       *                     1_GWF-(2,4781)
 Package                           64            -3.77854173E-02                   1_GWF-SFR_0-(639)-inflow
 Model                             65          1  2.22681787E-06       *                     1_GWF-(1,1966)
 Package                           65                -0.11027029                   1_GWF-SFR_0-(639)-inflow
 Model                             66          1  9.47757817E-07       *                     1_GWF-(1,4402)
 Package                           66             6.38574227E-02                   1_GWF-SFR_0-(639)-inflow
 Model                             67          1  1.07837387E-06       *                     1_GWF-(1,2458)
 Package                           67            -3.11750550E-02                   1_GWF-SFR_0-(639)-inflow
 Model                             68          1  6.85070894E-07       *                     1_GWF-(3,1966)
 Package                           68            -1.37636635E-02                   1_GWF-SFR_0-(639)-inflow
 Model                             69          1  1.10623364E-06       *                     1_GWF-(3,1704)
 Package                           69            -1.91060965E-03                   1_GWF-SFR_0-(639)-inflow
 Model                             70          1  5.59628401E-07       *                     1_GWF-(2,1461)
 Package                           70             3.23788949E-03                   1_GWF-SFR_0-(639)-inflow
 Model                             71          1  1.56184162E-06       *                     1_GWF-(3,1704)
 Package                           71            -6.27313781E-03                   1_GWF-SFR_0-(639)-inflow
 Model                             72          1  4.22385700E-07       *                     1_GWF-(2,1461)
 Package                           72             3.56973541E-03                   1_GWF-SFR_0-(639)-inflow
 Model                             73          1  5.63664636E-06       *                     1_GWF-(1,1848)
 Package                           73            -6.98204861E-03                   1_GWF-SFR_0-(639)-inflow
 Model                             74          1  2.86050874E-07       *                      1_GWF-(3,417)
 Package                           74            -2.63340120E-03                   1_GWF-SFR_0-(293)-inflow
 Model                             75          1  6.96169037E-06       *                     1_GWF-(2,1966)
 Package                           75            -1.16074261E-02                   1_GWF-SFR_0-(639)-inflow
 Model                             76          1  2.45393259E-07       *                     1_GWF-(1,1199)
 Package                           76            -1.86472969E-02                   1_GWF-SFR_0-(639)-inflow
 Model                             77          1  2.19753511E-06       *                     1_GWF-(1,1848)
 Package                           77             1.91936063E-04       *           1_GWF-SFR_0-(639)-inflow
 ----------------------------------------------------------------------------------------------------------


 77 CALLS TO NUMERICAL SOLUTION IN TIME STEP 1 STRESS PERIOD 1
 192 TOTAL ITERATIONS

 SLN_1 INNER ITERATION SUMMARY
 --------------------------------------------------------------------------------------------------------------------------------------
      TOTAL      OUTER      INNER                                                            MAXIMUM                                   
  ITERATION  ITERATION  ITERATION  MAXIMUM CHANGE      MAXIMUM CHANGE MODEL-(CELLID)        RESIDUAL    MAXIMUM RESIDUAL MODEL-(CELLID)
 --------------------------------------------------------------------------------------------------------------------------------------
          1          1          1      -9.0380161                     1_GWF-(1,5019)       103.48304                     1_GWF-(2,4824)
          2          1          2      -1.0586910                     1_GWF-(3,4825)       28.688308                     1_GWF-(2,4823)
          3          1          3     -0.46955516                     1_GWF-(2,4824)       12.135357                     1_GWF-(2,4715)
          4          1          4     -0.18887222                     1_GWF-(2,4716)       6.1925139                     1_GWF-(2,4715)
          5          1          5     -0.10097287                     1_GWF-(2,4715)       2.6363532                     1_GWF-(2,4715)
          6          1          6 -4.79672851E-02                     1_GWF-(2,4605)       1.2389828                     1_GWF-(2,4367)
          7          1          7 -2.29774409E-02                     1_GWF-(2,4513)      0.62817091                     1_GWF-(2,4253)
          8          1          8 -1.16425084E-02                     1_GWF-(2,4367)      0.31356499                     1_GWF-(2,4253)
          9          1          9 -5.93021152E-03                     1_GWF-(2,4253)     -0.16522467                       1_GWF-(2,97)
         10          1         10 -3.02088775E-03                     1_GWF-(2,4251)  8.43729025E-02                     1_GWF-(2,3817)
         11          1         11 -1.80486267E-03                     1_GWF-(2,4138)  4.43639568E-02                     1_GWF-(2,3817)
         12          1         12 -9.61899515E-04                     1_GWF-(2,4025)  2.08528590E-02                     1_GWF-(2,3817)
         13          2          1      -1.4036637                     1_GWF-(3,4386)       19.765181                     1_GWF-(2,4823)
         14          2          2     -0.97679794                     1_GWF-(1,4386)      -16.587734                      1_GWF-(2,433)
         15          2          3     -0.73529588                     1_GWF-(1,4386)      -13.531662                      1_GWF-(2,431)
         16          2          4     -0.62431957                     1_GWF-(1,4386)      -10.871519                      1_GWF-(2,328)
         17          2          5     -0.52175828                     1_GWF-(1,4386)      -7.5839512                      1_GWF-(2,428)
         18          2          6     -0.40507015                     1_GWF-(1,4386)      -6.6036926                      1_GWF-(2,192)
         19          2          7     -0.33980732                     1_GWF-(1,4386)      -5.7875102                      1_GWF-(2,192)
         20          2          8     -0.33302730                     1_GWF-(1,4386)      -4.4900616                      1_GWF-(2,192)
         21          2          9     -0.35852743                     1_GWF-(1,4386)      -3.1983652                       1_GWF-(2,97)
         22          2         10     -0.35648072                     1_GWF-(1,4386)      -2.5035171                      1_GWF-(2,200)
         23          2         11     -0.26752634                     1_GWF-(1,4386)      -1.9567502                      1_GWF-(2,200)
         24          2         12     -0.18688997                     1_GWF-(1,4386)      -1.7008823                       1_GWF-(2,93)
         25          2         13     -0.11649004                     1_GWF-(1,4386)      -1.5294097                       1_GWF-(2,93)
         26          2         14 -8.69479105E-02                     1_GWF-(1,4386)      -1.3782283                       1_GWF-(2,91)
         27          2         15  9.36140744E-02                       1_GWF-(1,93)      -1.2159021                       1_GWF-(2,91)
         28          2         16  9.36238013E-02                        1_GWF-(3,1)       1.0657950                     1_GWF-(2,3819)
         29          2         17  9.52836966E-02                        1_GWF-(3,1)      0.95519222                     1_GWF-(2,3819)
         30          2         18  9.24777346E-02                        1_GWF-(3,1)      0.84391380                     1_GWF-(2,3819)
         31          2         19  7.42904816E-02                        1_GWF-(3,1)      0.75938765                     1_GWF-(2,3819)
         32          2         20 -6.12706507E-02                     1_GWF-(1,3605)      0.68423716                     1_GWF-(2,3819)
         33          2         21 -6.44670098E-02                     1_GWF-(1,3605)      0.61659329                     1_GWF-(2,3819)
         34          2         22 -6.44356435E-02                     1_GWF-(1,3605)      0.54278117                     1_GWF-(2,3819)
         35          2         23 -6.48746266E-02                     1_GWF-(1,3605)      0.47341161                     1_GWF-(2,3819)
         36          2         24 -6.09788362E-02                     1_GWF-(1,3605)      0.42174780                     1_GWF-(2,3208)
         37          2         25 -5.61455238E-02                     1_GWF-(1,3605)      0.38346305                     1_GWF-(2,3208)
         38          2         26 -4.98589231E-02                     1_GWF-(1,3605)      0.34356947                     1_GWF-(2,3208)
         39          2         27 -4.30786180E-02                     1_GWF-(1,3605)      0.30292579                     1_GWF-(2,3208)
         40          2         28 -3.91958271E-02                     1_GWF-(1,3605)      0.26085660                     1_GWF-(2,3208)
         41          2         29 -3.13387498E-02                     1_GWF-(1,3222)      0.22612234                     1_GWF-(2,3214)
         42          2         30 -2.69795101E-02                     1_GWF-(1,3222)      0.19699149                     1_GWF-(2,3214)
         43          2         31 -2.36620121E-02                     1_GWF-(1,3222)      0.17038548                     1_GWF-(2,3214)
         44          2         32 -2.06966644E-02                     1_GWF-(1,3222)      0.14611610                     1_GWF-(2,3214)
         45          2         33 -2.30587887E-02                     1_GWF-(1,3222)      0.13280570                     1_GWF-(2,1460)
         46          2         34 -1.85748428E-02                     1_GWF-(1,3222)      0.15024686                       1_GWF-(2,96)
         47          2         35      0.13849088                     1_GWF-(1,3222)      0.26285844                     1_GWF-(2,3214)
         48          2         36     -0.18618986                     1_GWF-(1,3222)      0.14524441                     1_GWF-(2,1966)
         49          2         37 -5.06142637E-03                     1_GWF-(1,3605)  9.75553006E-02                     1_GWF-(2,1460)
         50          2         38 -1.45754654E-02                     1_GWF-(2,2458)      0.10891091                     1_GWF-(2,1966)
         51          2         39 -8.10127690E-03                     1_GWF-(1,3605)  8.76679336E-02                     1_GWF-(2,1460)
         52          2         40  3.26785873E-04                     1_GWF-(1,3605)  8.66170293E-02                     1_GWF-(2,1966)
         53          3          1      -1.5618198                     1_GWF-(1,4386)       4.0555963                     1_GWF-(2,4386)
         54          3          2     -0.32854696                     1_GWF-(1,4386)       1.7415997                     1_GWF-(2,4715)
         55          3          3     -0.22128902                     1_GWF-(1,4386)       1.3241032                     1_GWF-(2,4715)
         56          3          4     -0.18475194                     1_GWF-(1,4386)      0.93540089                     1_GWF-(2,4605)
         57          3          5     -0.15314876                     1_GWF-(2,4386)     -0.77113106                     1_GWF-(2,3259)
         58          3          6     -0.12858234                     1_GWF-(2,4386)      0.57505112                     1_GWF-(2,4367)
         59          3          7     -0.10308120                     1_GWF-(2,4386)     -0.49863480                     1_GWF-(2,2961)
         60          3          8 -7.95663065E-02                     1_GWF-(2,4386)     -0.46715009                     1_GWF-(2,2455)
         61          3          9 -6.78579750E-02                     1_GWF-(2,4386)     -0.41972850                     1_GWF-(2,2455)
         62          3         10 -6.97135881E-02                     1_GWF-(2,4386)     -0.34490500                     1_GWF-(2,4709)
         63          3         11 -6.76301244E-02                     1_GWF-(2,4386)     -0.30066468                       1_GWF-(2,96)
         64          3         12 -5.79319953E-02                     1_GWF-(2,4386)     -0.24620204                      1_GWF-(2,320)
         65          3         13 -3.70691554E-02                     1_GWF-(2,4386)     -0.23801609                      1_GWF-(2,320)
         66          3         14 -2.02270032E-02                     1_GWF-(2,4386)     -0.20586032                      1_GWF-(2,197)
         67          3         15  1.19472428E-02                        1_GWF-(3,1)     -0.19211823                      1_GWF-(2,197)
         68          3         16  1.11388309E-02                        1_GWF-(3,1)     -0.17808787                      1_GWF-(2,197)
         69          3         17  9.76684031E-03                        1_GWF-(3,1)     -0.16369406                      1_GWF-(2,197)
         70          3         18  9.60539101E-03                        1_GWF-(3,1)     -0.15426868                      1_GWF-(2,197)
         71          3         19  9.78529544E-03                        1_GWF-(3,1)     -0.14152035                      1_GWF-(2,197)
         72          3         20  1.02269743E-02                        1_GWF-(3,1)     -0.12813159                      1_GWF-(2,197)
         73          3         21  1.09093259E-02                       1_GWF-(3,90)     -0.11561534                      1_GWF-(2,197)
         74          3         22  1.29865739E-02                       1_GWF-(3,90)     -0.10314433                      1_GWF-(2,888)
         75          3         23  1.25696797E-02                       1_GWF-(3,90) -9.22991829E-02                      1_GWF-(2,888)
         76          3         24  1.28443872E-02                       1_GWF-(3,90) -8.15758468E-02                      1_GWF-(2,888)
         77          3         25  1.27703075E-02                       1_GWF-(3,90) -6.93617075E-02                      1_GWF-(2,888)
         78          3         26  1.14597608E-02                       1_GWF-(3,90) -6.00789030E-02                      1_GWF-(2,888)
         79          3         27  9.23610371E-03                       1_GWF-(2,90) -5.16880956E-02                     1_GWF-(2,1460)
         80          3         28  7.13450519E-03                       1_GWF-(2,90) -4.65013191E-02                     1_GWF-(2,1460)
         81          3         29  6.00868195E-03                      1_GWF-(2,316) -4.21623749E-02                     1_GWF-(2,1460)
         82          3         30  4.92733449E-03                      1_GWF-(3,518) -3.70392626E-02                     1_GWF-(2,1460)
         83          3         31  3.92566563E-03                      1_GWF-(3,786) -3.43403577E-02                     1_GWF-(2,1460)
         84          3         32  4.69125320E-03                      1_GWF-(3,786) -2.71734354E-02                     1_GWF-(2,1460)
         85          3         33  6.71751032E-04                     1_GWF-(2,1352) -3.19754920E-02                     1_GWF-(2,1353)
         86          4          1     -0.26967735                     1_GWF-(1,4386)      0.77448654                     1_GWF-(2,4386)
         87          4          2 -3.89736044E-02                     1_GWF-(1,4386)     -0.23770584                     1_GWF-(2,4119)
         88          4          3 -2.17070740E-02                     1_GWF-(2,4386)     -0.17605224                     1_GWF-(2,4237)
         89          4          4 -1.45759194E-02                     1_GWF-(2,4386)     -0.12811681                     1_GWF-(2,4125)
         90          4          5 -1.07163189E-02                     1_GWF-(2,4386)     -0.10480310                     1_GWF-(2,3259)
         91          4          6 -6.10944274E-03                     1_GWF-(2,4386) -7.91344682E-02                     1_GWF-(2,3586)
         92          4          7  4.39402781E-03                     1_GWF-(2,4355) -7.55084602E-02                     1_GWF-(2,4816)
         93          4          8  3.13121202E-03                     1_GWF-(2,4358) -7.49306194E-02                     1_GWF-(2,4816)
         94          4          9  3.23428526E-03                     1_GWF-(1,4136) -7.30968518E-02                     1_GWF-(2,4816)
         95          4         10  3.80857721E-03                     1_GWF-(2,4249) -6.16293022E-02                     1_GWF-(2,4816)
         96          4         11  4.16353131E-03                     1_GWF-(2,4362) -4.89131450E-02                     1_GWF-(2,4816)
         97          4         12  3.90993243E-03                     1_GWF-(2,4508) -3.19057550E-02                     1_GWF-(2,4816)
         98          4         13  2.83373915E-03                     1_GWF-(2,4508) -2.32492587E-02                     1_GWF-(2,1353)
         99          4         14  1.75537921E-03                     1_GWF-(2,4508) -2.00384051E-02                     1_GWF-(2,1353)
        100          4         15  1.30668078E-03                     1_GWF-(2,4600) -1.85753813E-02                     1_GWF-(2,1353)
        101          4         16  8.27935605E-04                      1_GWF-(3,887) -1.75225576E-02                     1_GWF-(2,1353)
        102          5          1  6.13567826E-03                     1_GWF-(3,5089) -6.81432340E-02                     1_GWF-(1,4662)
        103          5          2  2.75191516E-03                     1_GWF-(1,5060) -3.20390497E-02                     1_GWF-(2,4119)
        104          5          3  1.69902111E-03                     1_GWF-(3,4963) -2.39455645E-02                     1_GWF-(2,4237)
        105          5          4  1.24829797E-03                     1_GWF-(2,4616) -1.77959260E-02                     1_GWF-(2,1353)
        106          5          5  1.05985432E-03                     1_GWF-(2,4616) -1.76496561E-02                     1_GWF-(2,1353)
        107          5          6  8.28170326E-04                     1_GWF-(2,4130) -1.62300827E-02                     1_GWF-(2,1353)
        108          6          1  7.39110633E-04                     1_GWF-(3,5091) -1.53997262E-02                     1_GWF-(2,1353)
        109          7          1  4.06681099E-04                     1_GWF-(1,4386) -1.48620557E-02                     1_GWF-(2,1353)
        110          8          1  2.19210721E-03                     1_GWF-(2,4386) -1.92046856E-02                     1_GWF-(2,1353)
        111          8          2  3.42993852E-03                     1_GWF-(2,4386) -2.20098746E-02                     1_GWF-(2,1353)
        112          8          3  1.84807255E-03                     1_GWF-(2,4386) -1.24310556E-02                     1_GWF-(2,1353)
        113          8          4  2.57227680E-03                     1_GWF-(2,4386) -1.38743866E-02                     1_GWF-(2,1353)
        114          8          5  1.65561723E-03                     1_GWF-(2,4386) -1.11390179E-02                     1_GWF-(2,1353)
        115          8          6  2.14246630E-03                     1_GWF-(2,4386) -1.02900316E-02                     1_GWF-(2,1353)
        116          8          7  1.86379029E-03                     1_GWF-(3,1197)  1.10612041E-02                     1_GWF-(2,4709)
        117          8          8  1.45341117E-03                     1_GWF-(2,1198)  1.20215782E-02                     1_GWF-(2,4709)
        118          8          9  1.08750389E-03                     1_GWF-(2,1353)  1.18596516E-02                     1_GWF-(2,4709)
        119          8         10  1.12592695E-03                     1_GWF-(3,1352)  1.04588472E-02                     1_GWF-(2,4709)
        120          8         11  1.32935064E-03                     1_GWF-(2,1353)  8.35589779E-03                     1_GWF-(2,4709)
        121          8         12  1.58378923E-03                     1_GWF-(2,1460)  5.13162501E-03                     1_GWF-(2,4709)
        122          8         13  1.25953717E-03                     1_GWF-(2,1459) -3.10789464E-03                     1_GWF-(2,2345)
        123          8         14  8.16802784E-04                     1_GWF-(2,1705) -2.74067350E-03                     1_GWF-(2,2345)
        124          9          1  4.64901667E-05                     1_GWF-(1,1582) -2.55385729E-03                     1_GWF-(2,3819)
        125         10          1  1.24569628E-04                     1_GWF-(1,3605) -3.00363458E-03                     1_GWF-(2,1846)
        126         11          1  9.55629302E-05                     1_GWF-(1,3605) -2.37062877E-03                     1_GWF-(2,3819)
        127         12          1  2.02711975E-04                     1_GWF-(1,3605) -3.61414614E-03                     1_GWF-(2,1848)
        128         13          1  3.86866023E-05                     1_GWF-(1,1847) -2.09498479E-03                     1_GWF-(2,3819)
        129         14          1  1.06288694E-04                     1_GWF-(1,3605) -2.40024469E-03                     1_GWF-(2,2459)
        130         15          1  4.25510062E-05                     1_GWF-(1,3605) -1.90008879E-03                     1_GWF-(2,3819)
        131         16          1  1.26089812E-04                     1_GWF-(1,3605) -2.18984099E-03                     1_GWF-(2,2459)
        132         17          1  2.92789280E-05                     1_GWF-(1,3605) -1.71174838E-03                     1_GWF-(2,3819)
        133         18          1  1.77893021E-04                     1_GWF-(1,3605) -2.23375453E-03                     1_GWF-(2,2459)
        134         19          1  2.11234715E-05                     1_GWF-(1,2459) -1.46931248E-03                     1_GWF-(2,3819)
        135         20          1  3.57906773E-04                     1_GWF-(1,3605) -1.74849098E-03                     1_GWF-(2,1704)
        136         21          1 -1.59213653E-05                     1_GWF-(2,5086) -1.03519051E-03                     1_GWF-(2,3819)
        137         22          1  3.78069457E-04                     1_GWF-(1,3605) -1.94037124E-03                     1_GWF-(2,2089)
        138         23          1  1.43518411E-05                     1_GWF-(2,5044) -7.27777866E-04                     1_GWF-(2,3819)
        139         24          1  1.06958813E-04                     1_GWF-(2,3626) -9.52325023E-04                     1_GWF-(2,3074)
        140         25          1  1.93898198E-05                     1_GWF-(1,4131) -6.33654182E-04                     1_GWF-(2,3819)
        141         26          1  1.36528942E-04                     1_GWF-(1,3603) -1.15878371E-03                     1_GWF-(2,2459)
        142         27          1  4.66450013E-05                     1_GWF-(1,4399) -5.19421586E-04                     1_GWF-(2,3819)
        143         28          1  4.03276300E-05                     1_GWF-(2,4386) -5.48311242E-04                     1_GWF-(2,2964)
        144         29          1  1.67297797E-05                     1_GWF-(2,4396) -5.21623002E-04                     1_GWF-(2,3819)
        145         30          1  1.99089829E-05                     1_GWF-(2,3626) -4.77727347E-04                     1_GWF-(2,3485)
        146         31          1  1.04878666E-05                     1_GWF-(2,3622) -4.89924993E-04                     1_GWF-(2,3819)
        147         32          1  2.64163957E-05                     1_GWF-(2,3619) -4.87085849E-04                     1_GWF-(2,2459)
        148         33          1  7.72475039E-06                     1_GWF-(2,3622) -4.39994286E-04                     1_GWF-(2,3819)
        149         34          1  5.64641481E-05                     1_GWF-(1,3605) -5.63453329E-04                       1_GWF-(2,91)
        150         35          1  5.43190195E-06                     1_GWF-(2,3622) -3.63057572E-04                     1_GWF-(2,3819)
        151         36          1  2.88506140E-04                     1_GWF-(1,3605) -3.97867716E-04                      1_GWF-(2,787)
        152         37          1 -3.79039840E-06                     1_GWF-(3,5068) -1.72805946E-04                     1_GWF-(2,2088)
        153         38          1  2.55123928E-05                     1_GWF-(2,1966) -2.76639578E-04                     1_GWF-(2,1353)
        154         39          1  7.22675388E-06                     1_GWF-(2,5068) -1.63566231E-04                     1_GWF-(2,2458)
        155         40          1  1.39818782E-05                     1_GWF-(1,4399) -2.09346873E-04                     1_GWF-(2,1966)
        156         41          1  7.60566267E-06                     1_GWF-(2,4388) -1.39372643E-04                     1_GWF-(2,2852)
        157         42          1  6.05274398E-06                     1_GWF-(1,1848) -1.52696316E-04                     1_GWF-(2,1353)
        158         43          1  2.89349434E-06                     1_GWF-(2,1461) -1.29456610E-04                     1_GWF-(2,2458)
        159         44          1  8.43608043E-06                     1_GWF-(2,1704) -1.94585443E-04                      1_GWF-(2,198)
        160         45          1  1.79424683E-06                     1_GWF-(1,5070) -1.18836825E-04                     1_GWF-(2,2345)
        161         46          1  4.91120545E-05                     1_GWF-(1,1848) -2.72741476E-04                     1_GWF-(3,1965)
        162         47          1  2.15591546E-06                     1_GWF-(1,5070) -8.65912300E-05                     1_GWF-(2,2604)
        163         48          1  7.16824307E-06                     1_GWF-(3,2604) -1.23516501E-04                     1_GWF-(2,1353)
        164         49          1 -1.80351844E-06                     1_GWF-(1,5070) -8.54507202E-05                     1_GWF-(2,2088)
        165         50          1  1.58292414E-05                     1_GWF-(2,1966) -1.81238648E-04                     1_GWF-(2,1353)
        166         51          1  1.41689971E-06                     1_GWF-(2,4776) -7.28351580E-05                     1_GWF-(2,2458)
        167         52          1  9.20273879E-06                     1_GWF-(2,2604) -1.09381457E-04                     1_GWF-(2,3075)
        168         53          1 -3.89396298E-06                     1_GWF-(2,4776) -7.01199879E-05                     1_GWF-(2,2088)
        169         54          1  2.91434020E-06                     1_GWF-(1,1966) -7.84069919E-05                     1_GWF-(2,1353)
        170         55          1  1.48959812E-06                     1_GWF-(2,1461) -6.08060632E-05                     1_GWF-(2,2458)
        171         56          1  3.49280607E-06                     1_GWF-(2,1704) -8.86102059E-05                     1_GWF-(2,1043)
        172         57          1  8.62957278E-07                     1_GWF-(1,1582) -5.64650301E-05                     1_GWF-(2,2345)
        173         58          1  1.68758312E-05                     1_GWF-(1,1848) -1.15488432E-04                     1_GWF-(3,1965)
        174         59          1  9.37558964E-07                     1_GWF-(1,5070) -4.38276751E-05                     1_GWF-(2,1966)
        175         60          1  4.92702306E-06                     1_GWF-(2,1581) -7.03464312E-05                     1_GWF-(2,1353)
        176         61          1 -1.08385624E-06                     1_GWF-(1,5070) -4.36321691E-05                     1_GWF-(2,2088)
        177         62          1  1.43614045E-05                     1_GWF-(2,1966) -1.02367289E-04                     1_GWF-(2,1353)
        178         63          1  2.07279763E-06                     1_GWF-(2,4776) -4.27672132E-05                     1_GWF-(2,2604)
        179         64          1  2.53086909E-06                     1_GWF-(2,4781) -3.42106156E-05                     1_GWF-(2,2088)
        180         65          1  2.22681787E-06                     1_GWF-(1,1966) -4.25313880E-05                     1_GWF-(2,2720)
        181         66          1  9.47757818E-07                     1_GWF-(1,4402) -3.47700178E-05                     1_GWF-(2,1353)
        182         67          1  1.07837387E-06                     1_GWF-(1,2458) -3.69724390E-05                     1_GWF-(2,2088)
        183         68          1  6.85070893E-07                     1_GWF-(3,1966) -3.12532524E-05                     1_GWF-(2,2458)
        184         69          1  1.10623364E-06                     1_GWF-(3,1704) -3.69279093E-05                     1_GWF-(2,2088)
        185         70          1  5.59628401E-07                     1_GWF-(2,1461) -2.88771579E-05                     1_GWF-(2,2458)
        186         71          1  1.56184162E-06                     1_GWF-(3,1704) -4.11973760E-05                     1_GWF-(2,1582)
        187         72          1  4.22385700E-07                     1_GWF-(2,1461) -2.50711679E-05                     1_GWF-(2,2458)
        188         73          1  5.63664636E-06                     1_GWF-(1,1848) -5.29744447E-05                     1_GWF-(2,1043)
        189         74          1  2.86050873E-07                      1_GWF-(3,417) -2.14963568E-05                     1_GWF-(2,1966)
        190         75          1  6.96169037E-06                     1_GWF-(2,1966) -5.19681852E-05                     1_GWF-(2,1353)
        191         76          1  2.45393259E-07                     1_GWF-(1,1199) -1.62671590E-05                     1_GWF-(2,2458)
        192         77          1  2.19753511E-06                     1_GWF-(1,1848) -3.29794307E-05                     1_GWF-(2,1043)
 --------------------------------------------------------------------------------------------------------------------------------------




 Solution SLN_1 summary
 ----------------------------------------------------------------------
 Total formulate time:  0.53125000000000000 seconds
 Total solution time:   0.20312500000000000 seconds


 MEMORY MANAGER TOTAL STORAGE BY DATA TYPE, IN MEGABYTES
 -------------------------------
                    ALLOCATED   
 DATA TYPE           MEMORY     
 -------------------------------
 Character        8.25330000E-02
 Logical          4.40000000E-05
 Integer          4.3653800     
 Real             8.2588960     
 -------------------------------
 Total            12.706853     
 -------------------------------



 Run end date and time (yyyy/mm/dd hh:mm:ss): 2022/10/27  8:48:24
 Elapsed run time:  1.656 Seconds
 Normal termination of simulation.
