                                   MODFLOW 6
                U.S. GEOLOGICAL SURVEY MODULAR HYDROLOGIC MODEL
                          GROUNDWATER FLOW MODEL (GWF)
                   VERSION 6.3.0 release candidate 07/30/2021
                               ***DEVELOP MODE***

  MODFLOW 6 compiled Oct 29 2021 13:12:44 with GFORTRAN compiler (ver. 9.2.0)

This software is preliminary or provisional and is subject to 
revision. It is being provided to meet the need for timely best 
science. The software has not received final approval by the U.S. 
Geological Survey (USGS). No warranty, expressed or implied, is made 
by the USGS or the U.S. Government as to the functionality of the 
software and related material nor shall the fact of release 
constitute any such warranty. The software is provided on the 
condition that neither the USGS nor the U.S. Government shall be held 
liable for any damages resulting from the authorized or unauthorized 
use of the software.


System command used to initiate simulation:
mf6

MODFLOW was compiled using uniform precision.

Real Variables
  KIND: 8
  TINY (smallest non-zero value):    2.225074-308
  HUGE (largest value):    1.797693+308
  PRECISION: 15
  BIT SIZE: 64

Integer Variables
  KIND: 4
  HUGE (largest value): 2147483647
  BIT SIZE: 32

Long Integer Variables
  KIND: 8
  HUGE (largest value): 9223372036854775807
  BIT SIZE: 64

Logical Variables
  KIND: 4
  BIT SIZE: 32


 OPENED project.disv
 FILE TYPE:DISV6                  UNIT 1005   STATUS:OLD                 
 FORMAT:FORMATTED              ACCESS:SEQUENTIAL          
 ACTION:READ                


 OPENED project.ic
 FILE TYPE:IC6                    UNIT 1006   STATUS:OLD                 
 FORMAT:FORMATTED              ACCESS:SEQUENTIAL          
 ACTION:READ                


 OPENED project.npf
 FILE TYPE:NPF6                   UNIT 1007   STATUS:OLD                 
 FORMAT:FORMATTED              ACCESS:SEQUENTIAL          
 ACTION:READ                


 OPENED project.rcha
 FILE TYPE:RCH6                   UNIT 1008   STATUS:OLD                 
 FORMAT:FORMATTED              ACCESS:SEQUENTIAL          
 ACTION:READ                


 OPENED project.sfr
 FILE TYPE:SFR6                   UNIT 1009   STATUS:OLD                 
 FORMAT:FORMATTED              ACCESS:SEQUENTIAL          
 ACTION:READ                


 OPENED project.wel
 FILE TYPE:WEL6                   UNIT 1010   STATUS:OLD                 
 FORMAT:FORMATTED              ACCESS:SEQUENTIAL          
 ACTION:READ                


 OPENED project.chd
 FILE TYPE:CHD6                   UNIT 1011   STATUS:OLD                 
 FORMAT:FORMATTED              ACCESS:SEQUENTIAL          
 ACTION:READ                


 OPENED project.oc
 FILE TYPE:OC6                    UNIT 1012   STATUS:OLD                 
 FORMAT:FORMATTED              ACCESS:SEQUENTIAL          
 ACTION:READ                

 NAMEFILE OPTIONS:
    FLOWS WILL BE SAVED TO BUDGET FILE SPECIFIED IN OUTPUT CONTROL
    NEWTON-RAPHSON method enabled for the model.
    NEWTON-RAPHSON UNDER-RELAXATION based on the bottom elevation of the model will be applied to the model.

 DISV -- VERTEX GRID DISCRETIZATION PACKAGE, VERSION 1 : 12/23/2015 - INPUT READ FROM UNIT 1005


 # File generated by Flopy version 3.3.6 on 10/27/2022 at 08:48:21.

 PROCESSING DISCRETIZATION OPTIONS
    MODEL LENGTH UNIT IS METERS
 END OF DISCRETIZATION OPTIONS

 PROCESSING DISCRETIZATION DIMENSIONS
   NLAY = 3
   NCPL = 5108
   NVERT = 6196
 END OF DISCRETIZATION DIMENSIONS

 PROCESSING GRIDDATA
 END PROCESSING GRIDDATA

 PROCESSING VERTICES
   SUCCESSFULLY READ 6196 (X,Y) COORDINATES
   MINIMUM X COORDINATE =     0.00000000000000    
   MAXIMUM X COORDINATE =     5000.00000000000    
   MINIMUM Y COORDINATE =     0.00000000000000    
   MAXIMUM Y COORDINATE =     10000.0000000000    
 END PROCESSING VERTICES

 PROCESSING CELL2D
   SUCCESSFULLY READ 5108 CELL2D INFORMATION ENTRIES
   MINIMUM X CELL CENTER =     125.000000000000    
   MAXIMUM X CELL CENTER =     4875.00000000000    
   MINIMUM Y CELL CENTER =     7.81250000000000    
   MAXIMUM Y CELL CENTER =     9992.18750000000    
   MAXIMUM NUMBER OF CELL2D VERTICES IS 9 FOR CELL 878
 END PROCESSING VERTICES

 THE SPECIFIED IDOMAIN RESULTS IN A REDUCED NUMBER OF CELLS.
 NUMBER OF USER NODES:   15324
 NUMBER OF NODES IN SOLUTION:   15006



 NPF -- NODE PROPERTY FLOW PACKAGE, VERSION 1, 3/30/2015 INPUT READ FROM UNIT 1007


 # File generated by Flopy version 3.3.6 on 10/27/2022 at 08:48:22.
 PROCESSING NPF OPTIONS
    SPECIFIC DISCHARGE WILL BE CALCULATED AT CELL CENTERS AND WRITTEN TO DATA-SPDIS IN BUDGET FILE WHEN REQUESTED.
 END OF NPF OPTIONS

 WEL   -- WEL PACKAGE, VERSION 8, 2/22/2014 INPUT READ FROM UNIT 1010
 # File generated by Flopy version 3.3.6 on 10/27/2022 at 08:48:22.

 PROCESSING WEL OPTIONS
 END OF WEL OPTIONS

 PROCESSING WEL DIMENSIONS
    MAXBOUND =       6
 END OF WEL DIMENSIONS

 RCH   -- RCH PACKAGE, VERSION 8, 2/22/2014 INPUT READ FROM UNIT 1008
 # File generated by Flopy version 3.3.6 on 10/27/2022 at 08:48:22.

 PROCESSING RCH OPTIONS
    RECHARGE INPUT WILL BE READ AS ARRAY(S).
 END OF RCHA OPTIONS

 CHD   -- CHD PACKAGE, VERSION 8, 2/22/2014 INPUT READ FROM UNIT 1011
 # File generated by Flopy version 3.3.6 on 10/27/2022 at 08:48:22.

 PROCESSING CHD OPTIONS
 END OF CHD OPTIONS

 PROCESSING CHD DIMENSIONS
    MAXBOUND =      56
 END OF CHD DIMENSIONS

 SFR   -- SFR PACKAGE, VERSION 8, 2/22/2014 INPUT READ FROM UNIT 1009
 # File generated by Flopy version 3.3.6 on 10/27/2022 at 08:48:22.

 PROCESSING SFR OPTIONS
    SFR BOUNDARIES HAVE NAMES IN LAST COLUMN.
    SFR STAGES WILL BE PRINTED TO LISTING FILE.
    SFR FLOWS WILL BE PRINTED TO LISTING FILE.

 OPENED project.sfr.obs
 FILE TYPE:OBS   UNIT 1014   STATUS:OLD                 
 FORMAT:FORMATTED              ACCESS:SEQUENTIAL          
 ACTION:READ                

    UNIT CONVERSION VALUE (86400.000000000000) SPECIFIED.
 END OF SFR OPTIONS

 PROCESSING SFR DIMENSIONS
    NREACHES = 1000
 END OF SFR DIMENSIONS

 PROCESSING SFR PACKAGEDATA
 END OF SFR PACKAGEDATA

 PROCESSING SFR CONNECTIONDATA
 END OF SFR CONNECTIONDATA

 IC -- INITIAL CONDITIONS PACKAGE, VERSION 8, 3/28/2015 INPUT READ FROM UNIT 1006
 # File generated by Flopy version 3.3.6 on 10/27/2022 at 08:48:22.
 PROCESSING GRIDDATA
 END PROCESSING GRIDDATA
 PROCESSING GRIDDATA

                ICELLTYPE = 1
 K33 not provided.  Assuming K33 = K.
 K22 not provided.  Assuming K22 = K.
 END PROCESSING GRIDDATA
    BINARY GRID INFORMATION WILL BE WRITTEN TO:
      UNIT NUMBER: 1015
      FILE NAME: project.disv.grb

 OPENED project.disv.grb
 FILE TYPE:DATA(BINARY)   UNIT 1015   STATUS:REPLACE             
 FORMAT:UNFORMATTED            ACCESS:STREAM              
 ACTION:READWRITE           

      THE LAST TIME STEP WILL BE PRINTED
      THE LAST TIME STEP WILL BE PRINTED
 # File generated by Flopy version 3.3.6 on 10/27/2022 at 08:48:22.

 PROCESSING OC OPTIONS

    BUDGET INFORMATION WILL BE WRITTEN TO:
      UNIT NUMBER: 1016
      FILE NAME: project.cbc

 OPENED project.cbc
 FILE TYPE:DATA(BINARY)   UNIT 1016   STATUS:REPLACE             
 FORMAT:UNFORMATTED            ACCESS:STREAM              
 ACTION:READWRITE           

    HEAD INFORMATION WILL BE WRITTEN TO:
      UNIT NUMBER: 1017
      FILE NAME: project.hds

 OPENED project.hds
 FILE TYPE:DATA(BINARY)   UNIT 1017   STATUS:REPLACE             
 FORMAT:UNFORMATTED            ACCESS:STREAM              
 ACTION:READWRITE           

 END OF OC OPTIONS

The observation utility is active for "SFR_0"
 # File generated by Flopy version 3.3.6 on 10/27/2022 at 08:48:22.

Processing observation options:

The PRINT_INPUT option has been specified.


 OBSERVATIONS READ FROM FILE "project.sfr.obs"
 ----------------------------------------------------------------------------------------------------------------------------------------------------------------------------------------------------------------------------
 NAME                                     TYPE                                       TIME         LOCATION DATA                              OUTPUT FILENAME                                                                 
 ----------------------------------------------------------------------------------------------------------------------------------------------------------------------------------------------------------------------------
 UPSTREAM                                 CONTINUOUS  SFR                            ALL TIMES    "  UPSTREAM"                               sfr_obs.csv                                                                     
 DOWNSTREAM                               CONTINUOUS  SFR                            ALL TIMES    "  DOWNSTREAM"                             sfr_obs.csv                                                                     
 GAGE1                                    CONTINUOUS  DOWNSTREAM-FLOW                ALL TIMES    "  410"                                    sfr_obs.csv                                                                     
 GAGE2                                    CONTINUOUS  EXT-OUTFLOW                    ALL TIMES    "  1000"                                   sfr_obs.csv                                                                     
 ----------------------------------------------------------------------------------------------------------------------------------------------------------------------------------------------------------------------------



start timestep kper="1" kstp="1" mode="normal"


 BEGIN READING OUTPUT CONTROL FOR STRESS PERIOD 1
      ALL TIME STEPS WILL BE SAVED
      ALL TIME STEPS WILL BE SAVED

 END READING OUTPUT CONTROL FOR STRESS PERIOD 1

                 RECHARGE =  0.1382400E-03

 SLN_1 INNER ITERATION SUMMARY
 --------------------------------------------------------------------------------------------------------------------------------------
      TOTAL      OUTER      INNER                                                            MAXIMUM                                   
  ITERATION  ITERATION  ITERATION  MAXIMUM CHANGE      MAXIMUM CHANGE MODEL-(CELLID)        RESIDUAL    MAXIMUM RESIDUAL MODEL-(CELLID)
 --------------------------------------------------------------------------------------------------------------------------------------
          1          1          1      -9.0380161                     1_GWF-(1,5019)       103.48304                     1_GWF-(2,4824)
          2          1          2      -1.0586910                     1_GWF-(3,4825)       28.688308                     1_GWF-(2,4823)
          3          1          3     -0.46955516                     1_GWF-(2,4824)       12.135357                     1_GWF-(2,4715)
          4          1          4     -0.18887222                     1_GWF-(2,4716)       6.1925139                     1_GWF-(2,4715)
          5          1          5     -0.10097287                     1_GWF-(2,4715)       2.6363532                     1_GWF-(2,4715)
          6          1          6 -4.79672851E-02                     1_GWF-(2,4605)       1.2389828                     1_GWF-(2,4367)
          7          1          7 -2.29774409E-02                     1_GWF-(2,4513)      0.62817091                     1_GWF-(2,4253)
          8          1          8 -1.16425084E-02                     1_GWF-(2,4367)      0.31356499                     1_GWF-(2,4253)
          9          1          9 -5.93021152E-03                     1_GWF-(2,4253)     -0.16522467                       1_GWF-(2,97)
         10          1         10 -3.02088775E-03                     1_GWF-(2,4251)  8.43729025E-02                     1_GWF-(2,3817)
         11          1         11 -1.80486267E-03                     1_GWF-(2,4138)  4.43639568E-02                     1_GWF-(2,3817)
         12          1         12 -9.61899515E-04                     1_GWF-(2,4025)  2.08528590E-02                     1_GWF-(2,3817)
         13          2          1      -1.4036637                     1_GWF-(3,4386)       19.765181                     1_GWF-(2,4823)
         14          2          2     -0.97679794                     1_GWF-(1,4386)      -16.587734                      1_GWF-(2,433)
         15          2          3     -0.73529588                     1_GWF-(1,4386)      -13.531662                      1_GWF-(2,431)
         16          2          4     -0.62431957                     1_GWF-(1,4386)      -10.871519                      1_GWF-(2,328)
         17          2          5     -0.52175828                     1_GWF-(1,4386)      -7.5839512                      1_GWF-(2,428)
         18          2          6     -0.40507015                     1_GWF-(1,4386)      -6.6036926                      1_GWF-(2,192)
         19          2          7     -0.33980732                     1_GWF-(1,4386)      -5.7875102                      1_GWF-(2,192)
         20          2          8     -0.33302730                     1_GWF-(1,4386)      -4.4900616                      1_GWF-(2,192)
         21          2          9     -0.35852743                     1_GWF-(1,4386)      -3.1983652                       1_GWF-(2,97)
         22          2         10     -0.35648072                     1_GWF-(1,4386)      -2.5035171                      1_GWF-(2,200)
         23          2         11     -0.26752634                     1_GWF-(1,4386)      -1.9567502                      1_GWF-(2,200)
         24          2         12     -0.18688997                     1_GWF-(1,4386)      -1.7008823                       1_GWF-(2,93)
         25          2         13     -0.11649004                     1_GWF-(1,4386)      -1.5294097                       1_GWF-(2,93)
         26          2         14 -8.69479105E-02                     1_GWF-(1,4386)      -1.3782283                       1_GWF-(2,91)
         27          2         15  9.36140744E-02                       1_GWF-(1,93)      -1.2159021                       1_GWF-(2,91)
         28          2         16  9.36238013E-02                        1_GWF-(3,1)       1.0657950                     1_GWF-(2,3819)
         29          2         17  9.52836966E-02                        1_GWF-(3,1)      0.95519222                     1_GWF-(2,3819)
         30          2         18  9.24777346E-02                        1_GWF-(3,1)      0.84391380                     1_GWF-(2,3819)
         31          2         19  7.42904816E-02                        1_GWF-(3,1)      0.75938765                     1_GWF-(2,3819)
         32          2         20 -6.12706507E-02                     1_GWF-(1,3605)      0.68423716                     1_GWF-(2,3819)
         33          2         21 -6.44670098E-02                     1_GWF-(1,3605)      0.61659329                     1_GWF-(2,3819)
         34          2         22 -6.44356435E-02                     1_GWF-(1,3605)      0.54278117                     1_GWF-(2,3819)
         35          2         23 -6.48746266E-02                     1_GWF-(1,3605)      0.47341161                     1_GWF-(2,3819)
         36          2         24 -6.09788362E-02                     1_GWF-(1,3605)      0.42174780                     1_GWF-(2,3208)
         37          2         25 -5.61455238E-02                     1_GWF-(1,3605)      0.38346305                     1_GWF-(2,3208)
         38          2         26 -4.98589231E-02                     1_GWF-(1,3605)      0.34356947                     1_GWF-(2,3208)
         39          2         27 -4.30786180E-02                     1_GWF-(1,3605)      0.30292579                     1_GWF-(2,3208)
         40          2         28 -3.91958271E-02                     1_GWF-(1,3605)      0.26085660                     1_GWF-(2,3208)
         41          2         29 -3.13387498E-02                     1_GWF-(1,3222)      0.22612234                     1_GWF-(2,3214)
         42          2         30 -2.69795101E-02                     1_GWF-(1,3222)      0.19699149                     1_GWF-(2,3214)
         43          2         31 -2.36620121E-02                     1_GWF-(1,3222)      0.17038548                     1_GWF-(2,3214)
         44          2         32 -2.06966644E-02                     1_GWF-(1,3222)      0.14611610                     1_GWF-(2,3214)
         45          2         33 -2.30587887E-02                     1_GWF-(1,3222)      0.13280570                     1_GWF-(2,1460)
         46          2         34 -1.85748428E-02                     1_GWF-(1,3222)      0.15024686                       1_GWF-(2,96)
         47          2         35      0.13849088                     1_GWF-(1,3222)      0.26285844                     1_GWF-(2,3214)
         48          2         36     -0.18618986                     1_GWF-(1,3222)      0.14524441                     1_GWF-(2,1966)
         49          2         37 -5.06142637E-03                     1_GWF-(1,3605)  9.75553006E-02                     1_GWF-(2,1460)
         50          2         38 -1.45754654E-02                     1_GWF-(2,2458)      0.10891091                     1_GWF-(2,1966)
         51          2         39 -8.10127690E-03                     1_GWF-(1,3605)  8.76679336E-02                     1_GWF-(2,1460)
         52          2         40  3.26785873E-04                     1_GWF-(1,3605)  8.66170293E-02                     1_GWF-(2,1966)
         53          3          1      -1.5618198                     1_GWF-(1,4386)       4.0555963                     1_GWF-(2,4386)
         54          3          2     -0.32854696                     1_GWF-(1,4386)       1.7415997                     1_GWF-(2,4715)
         55          3          3     -0.22128902                     1_GWF-(1,4386)       1.3241032                     1_GWF-(2,4715)
         56          3          4     -0.18475194                     1_GWF-(1,4386)      0.93540089                     1_GWF-(2,4605)
         57          3          5     -0.15314876                     1_GWF-(2,4386)     -0.77113106                     1_GWF-(2,3259)
         58          3          6     -0.12858234                     1_GWF-(2,4386)      0.57505112                     1_GWF-(2,4367)
         59          3          7     -0.10308120                     1_GWF-(2,4386)     -0.49863480                     1_GWF-(2,2961)
         60          3          8 -7.95663065E-02                     1_GWF-(2,4386)     -0.46715009                     1_GWF-(2,2455)
         61          3          9 -6.78579750E-02                     1_GWF-(2,4386)     -0.41972850                     1_GWF-(2,2455)
         62          3         10 -6.97135881E-02                     1_GWF-(2,4386)     -0.34490500                     1_GWF-(2,4709)
         63          3         11 -6.76301244E-02                     1_GWF-(2,4386)     -0.30066468                       1_GWF-(2,96)
         64          3         12 -5.79319953E-02                     1_GWF-(2,4386)     -0.24620204                      1_GWF-(2,320)
         65          3         13 -3.70691554E-02                     1_GWF-(2,4386)     -0.23801609                      1_GWF-(2,320)
         66          3         14 -2.02270032E-02                     1_GWF-(2,4386)     -0.20586032                      1_GWF-(2,197)
         67          3         15  1.19472428E-02                        1_GWF-(3,1)     -0.19211823                      1_GWF-(2,197)
         68          3         16  1.11388309E-02                        1_GWF-(3,1)     -0.17808787                      1_GWF-(2,197)
         69          3         17  9.76684031E-03                        1_GWF-(3,1)     -0.16369406                      1_GWF-(2,197)
         70          3         18  9.60539101E-03                        1_GWF-(3,1)     -0.15426868                      1_GWF-(2,197)
         71          3         19  9.78529544E-03                        1_GWF-(3,1)     -0.14152035                      1_GWF-(2,197)
         72          3         20  1.02269743E-02                        1_GWF-(3,1)     -0.12813159                      1_GWF-(2,197)
         73          3         21  1.09093259E-02                       1_GWF-(3,90)     -0.11561534                      1_GWF-(2,197)
         74          3         22  1.29865739E-02                       1_GWF-(3,90)     -0.10314433                      1_GWF-(2,888)
         75          3         23  1.25696797E-02                       1_GWF-(3,90) -9.22991829E-02                      1_GWF-(2,888)
         76          3         24  1.28443872E-02                       1_GWF-(3,90) -8.15758468E-02                      1_GWF-(2,888)
         77          3         25  1.27703075E-02                       1_GWF-(3,90) -6.93617075E-02                      1_GWF-(2,888)
         78          3         26  1.14597608E-02                       1_GWF-(3,90) -6.00789030E-02                      1_GWF-(2,888)
         79          3         27  9.23610371E-03                       1_GWF-(2,90) -5.16880956E-02                     1_GWF-(2,1460)
         80          3         28  7.13450519E-03                       1_GWF-(2,90) -4.65013191E-02                     1_GWF-(2,1460)
         81          3         29  6.00868195E-03                      1_GWF-(2,316) -4.21623749E-02                     1_GWF-(2,1460)
         82          3         30  4.92733449E-03                      1_GWF-(3,518) -3.70392626E-02                     1_GWF-(2,1460)
         83          3         31  3.92566563E-03                      1_GWF-(3,786) -3.43403577E-02                     1_GWF-(2,1460)
         84          3         32  4.69125320E-03                      1_GWF-(3,786) -2.71734354E-02                     1_GWF-(2,1460)
         85          3         33  6.71751032E-04                     1_GWF-(2,1352) -3.19754920E-02                     1_GWF-(2,1353)
         86          4          1     -0.26967735                     1_GWF-(1,4386)      0.77448654                     1_GWF-(2,4386)
         87          4          2 -3.89736044E-02                     1_GWF-(1,4386)     -0.23770584                     1_GWF-(2,4119)
         88          4          3 -2.17070740E-02                     1_GWF-(2,4386)     -0.17605224                     1_GWF-(2,4237)
         89          4          4 -1.45759194E-02                     1_GWF-(2,4386)     -0.12811681                     1_GWF-(2,4125)
         90          4          5 -1.07163189E-02                     1_GWF-(2,4386)     -0.10480310                     1_GWF-(2,3259)
         91          4          6 -6.10944274E-03                     1_GWF-(2,4386) -7.91344682E-02                     1_GWF-(2,3586)
         92          4          7  4.39402781E-03                     1_GWF-(2,4355) -7.55084602E-02                     1_GWF-(2,4816)
         93          4          8  3.13121202E-03                     1_GWF-(2,4358) -7.49306194E-02                     1_GWF-(2,4816)
         94          4          9  3.23428526E-03                     1_GWF-(1,4136) -7.30968518E-02                     1_GWF-(2,4816)
         95          4         10  3.80857721E-03                     1_GWF-(2,4249) -6.16293022E-02                     1_GWF-(2,4816)
         96          4         11  4.16353131E-03                     1_GWF-(2,4362) -4.89131450E-02                     1_GWF-(2,4816)
         97          4         12  3.90993243E-03                     1_GWF-(2,4508) -3.19057550E-02                     1_GWF-(2,4816)
         98          4         13  2.83373915E-03                     1_GWF-(2,4508) -2.32492587E-02                     1_GWF-(2,1353)
         99          4         14  1.75537921E-03                     1_GWF-(2,4508) -2.00384051E-02                     1_GWF-(2,1353)
        100          4         15  1.30668078E-03                     1_GWF-(2,4600) -1.85753813E-02                     1_GWF-(2,1353)
        101          4         16  8.27935605E-04                      1_GWF-(3,887) -1.75225576E-02                     1_GWF-(2,1353)
        102          5          1  6.13567826E-03                     1_GWF-(3,5089) -6.81432340E-02                     1_GWF-(1,4662)
        103          5          2  2.75191516E-03                     1_GWF-(1,5060) -3.20390497E-02                     1_GWF-(2,4119)
        104          5          3  1.69902111E-03                     1_GWF-(3,4963) -2.39455645E-02                     1_GWF-(2,4237)
        105          5          4  1.24829797E-03                     1_GWF-(2,4616) -1.77959260E-02                     1_GWF-(2,1353)
        106          5          5  1.05985432E-03                     1_GWF-(2,4616) -1.76496561E-02                     1_GWF-(2,1353)
        107          5          6  8.28170326E-04                     1_GWF-(2,4130) -1.62300827E-02                     1_GWF-(2,1353)
        108          6          1  7.39110633E-04                     1_GWF-(3,5091) -1.53997262E-02                     1_GWF-(2,1353)
        109          7          1  4.06681099E-04                     1_GWF-(1,4386) -1.48620557E-02                     1_GWF-(2,1353)
        110          8          1  2.19210721E-03                     1_GWF-(2,4386) -1.92046856E-02                     1_GWF-(2,1353)
        111          8          2  3.42993852E-03                     1_GWF-(2,4386) -2.20098746E-02                     1_GWF-(2,1353)
        112          8          3  1.84807255E-03                     1_GWF-(2,4386) -1.24310556E-02                     1_GWF-(2,1353)
        113          8          4  2.57227680E-03                     1_GWF-(2,4386) -1.38743866E-02                     1_GWF-(2,1353)
        114          8          5  1.65561723E-03                     1_GWF-(2,4386) -1.11390179E-02                     1_GWF-(2,1353)
        115          8          6  2.14246630E-03                     1_GWF-(2,4386) -1.02900316E-02                     1_GWF-(2,1353)
        116          8          7  1.86379029E-03                     1_GWF-(3,1197)  1.10612041E-02                     1_GWF-(2,4709)
        117          8          8  1.45341117E-03                     1_GWF-(2,1198)  1.20215782E-02                     1_GWF-(2,4709)
        118          8          9  1.08750389E-03                     1_GWF-(2,1353)  1.18596516E-02                     1_GWF-(2,4709)
        119          8         10  1.12592695E-03                     1_GWF-(3,1352)  1.04588472E-02                     1_GWF-(2,4709)
        120          8         11  1.32935064E-03                     1_GWF-(2,1353)  8.35589779E-03                     1_GWF-(2,4709)
        121          8         12  1.58378923E-03                     1_GWF-(2,1460)  5.13162501E-03                     1_GWF-(2,4709)
        122          8         13  1.25953717E-03                     1_GWF-(2,1459) -3.10789464E-03                     1_GWF-(2,2345)
        123          8         14  8.16802784E-04                     1_GWF-(2,1705) -2.74067350E-03                     1_GWF-(2,2345)
        124          9          1  4.64901667E-05                     1_GWF-(1,1582) -2.55385729E-03                     1_GWF-(2,3819)
        125         10          1  1.24569628E-04                     1_GWF-(1,3605) -3.00363458E-03                     1_GWF-(2,1846)
        126         11          1  9.55629302E-05                     1_GWF-(1,3605) -2.37062877E-03                     1_GWF-(2,3819)
        127         12          1  2.02711975E-04                     1_GWF-(1,3605) -3.61414614E-03                     1_GWF-(2,1848)
        128         13          1  3.86866023E-05                     1_GWF-(1,1847) -2.09498479E-03                     1_GWF-(2,3819)
        129         14          1  1.06288694E-04                     1_GWF-(1,3605) -2.40024469E-03                     1_GWF-(2,2459)
        130         15          1  4.25510062E-05                     1_GWF-(1,3605) -1.90008879E-03                     1_GWF-(2,3819)
        131         16          1  1.26089812E-04                     1_GWF-(1,3605) -2.18984099E-03                     1_GWF-(2,2459)
        132         17          1  2.92789280E-05                     1_GWF-(1,3605) -1.71174838E-03                     1_GWF-(2,3819)
        133         18          1  1.77893021E-04                     1_GWF-(1,3605) -2.23375453E-03                     1_GWF-(2,2459)
        134         19          1  2.11234715E-05                     1_GWF-(1,2459) -1.46931248E-03                     1_GWF-(2,3819)
        135         20          1  3.57906773E-04                     1_GWF-(1,3605) -1.74849098E-03                     1_GWF-(2,1704)
        136         21          1 -1.59213653E-05                     1_GWF-(2,5086) -1.03519051E-03                     1_GWF-(2,3819)
        137         22          1  3.78069457E-04                     1_GWF-(1,3605) -1.94037124E-03                     1_GWF-(2,2089)
        138         23          1  1.43518411E-05                     1_GWF-(2,5044) -7.27777866E-04                     1_GWF-(2,3819)
        139         24          1  1.06958813E-04                     1_GWF-(2,3626) -9.52325023E-04                     1_GWF-(2,3074)
        140         25          1  1.93898198E-05                     1_GWF-(1,4131) -6.33654182E-04                     1_GWF-(2,3819)
        141         26          1  1.36528942E-04                     1_GWF-(1,3603) -1.15878371E-03                     1_GWF-(2,2459)
        142         27          1  4.66450013E-05                     1_GWF-(1,4399) -5.19421586E-04                     1_GWF-(2,3819)
        143         28          1  4.03276300E-05                     1_GWF-(2,4386) -5.48311242E-04                     1_GWF-(2,2964)
        144         29          1  1.67297797E-05                     1_GWF-(2,4396) -5.21623002E-04                     1_GWF-(2,3819)
        145         30          1  1.99089829E-05                     1_GWF-(2,3626) -4.77727347E-04                     1_GWF-(2,3485)
        146         31          1  1.04878666E-05                     1_GWF-(2,3622) -4.89924993E-04                     1_GWF-(2,3819)
        147         32          1  2.64163957E-05                     1_GWF-(2,3619) -4.87085849E-04                     1_GWF-(2,2459)
        148         33          1  7.72475039E-06                     1_GWF-(2,3622) -4.39994286E-04                     1_GWF-(2,3819)
        149         34          1  5.64641481E-05                     1_GWF-(1,3605) -5.63453329E-04                       1_GWF-(2,91)
        150         35          1  5.43190195E-06                     1_GWF-(2,3622) -3.63057572E-04                     1_GWF-(2,3819)
        151         36          1  2.88506140E-04                     1_GWF-(1,3605) -3.97867716E-04                      1_GWF-(2,787)
        152         37          1 -3.79039840E-06                     1_GWF-(3,5068) -1.72805946E-04                     1_GWF-(2,2088)
        153         38          1  2.55123928E-05                     1_GWF-(2,1966) -2.76639578E-04                     1_GWF-(2,1353)
        154         39          1  7.22675388E-06                     1_GWF-(2,5068) -1.63566231E-04                     1_GWF-(2,2458)
        155         40          1  1.39818782E-05                     1_GWF-(1,4399) -2.09346873E-04                     1_GWF-(2,1966)
        156         41          1  7.60566267E-06                     1_GWF-(2,4388) -1.39372643E-04                     1_GWF-(2,2852)
        157         42          1  6.05274398E-06                     1_GWF-(1,1848) -1.52696316E-04                     1_GWF-(2,1353)
        158         43          1  2.89349434E-06                     1_GWF-(2,1461) -1.29456610E-04                     1_GWF-(2,2458)
        159         44          1  8.43608043E-06                     1_GWF-(2,1704) -1.94585443E-04                      1_GWF-(2,198)
        160         45          1  1.79424683E-06                     1_GWF-(1,5070) -1.18836825E-04                     1_GWF-(2,2345)
        161         46          1  4.91120545E-05                     1_GWF-(1,1848) -2.72741476E-04                     1_GWF-(3,1965)
        162         47          1  2.15591546E-06                     1_GWF-(1,5070) -8.65912300E-05                     1_GWF-(2,2604)
        163         48          1  7.16824307E-06                     1_GWF-(3,2604) -1.23516501E-04                     1_GWF-(2,1353)
        164         49          1 -1.80351844E-06                     1_GWF-(1,5070) -8.54507202E-05                     1_GWF-(2,2088)
        165         50          1  1.58292414E-05                     1_GWF-(2,1966) -1.81238648E-04                     1_GWF-(2,1353)
        166         51          1  1.41689971E-06                     1_GWF-(2,4776) -7.28351580E-05                     1_GWF-(2,2458)
        167         52          1  9.20273879E-06                     1_GWF-(2,2604) -1.09381457E-04                     1_GWF-(2,3075)
        168         53          1 -3.89396298E-06                     1_GWF-(2,4776) -7.01199879E-05                     1_GWF-(2,2088)
        169         54          1  2.91434020E-06                     1_GWF-(1,1966) -7.84069919E-05                     1_GWF-(2,1353)
        170         55          1  1.48959812E-06                     1_GWF-(2,1461) -6.08060632E-05                     1_GWF-(2,2458)
        171         56          1  3.49280607E-06                     1_GWF-(2,1704) -8.86102059E-05                     1_GWF-(2,1043)
        172         57          1  8.62957278E-07                     1_GWF-(1,1582) -5.64650301E-05                     1_GWF-(2,2345)
        173         58          1  1.68758312E-05                     1_GWF-(1,1848) -1.15488432E-04                     1_GWF-(3,1965)
        174         59          1  9.37558964E-07                     1_GWF-(1,5070) -4.38276751E-05                     1_GWF-(2,1966)
        175         60          1  4.92702306E-06                     1_GWF-(2,1581) -7.03464312E-05                     1_GWF-(2,1353)
        176         61          1 -1.08385624E-06                     1_GWF-(1,5070) -4.36321691E-05                     1_GWF-(2,2088)
        177         62          1  1.43614045E-05                     1_GWF-(2,1966) -1.02367289E-04                     1_GWF-(2,1353)
        178         63          1  2.07279763E-06                     1_GWF-(2,4776) -4.27672132E-05                     1_GWF-(2,2604)
        179         64          1  2.53086909E-06                     1_GWF-(2,4781) -3.42106156E-05                     1_GWF-(2,2088)
        180         65          1  2.22681787E-06                     1_GWF-(1,1966) -4.25313880E-05                     1_GWF-(2,2720)
        181         66          1  9.47757818E-07                     1_GWF-(1,4402) -3.47700178E-05                     1_GWF-(2,1353)
        182         67          1  1.07837387E-06                     1_GWF-(1,2458) -3.69724390E-05                     1_GWF-(2,2088)
        183         68          1  6.85070893E-07                     1_GWF-(3,1966) -3.12532524E-05                     1_GWF-(2,2458)
        184         69          1  1.10623364E-06                     1_GWF-(3,1704) -3.69279093E-05                     1_GWF-(2,2088)
        185         70          1  5.59628401E-07                     1_GWF-(2,1461) -2.88771579E-05                     1_GWF-(2,2458)
        186         71          1  1.56184162E-06                     1_GWF-(3,1704) -4.11973760E-05                     1_GWF-(2,1582)
        187         72          1  4.22385700E-07                     1_GWF-(2,1461) -2.50711679E-05                     1_GWF-(2,2458)
        188         73          1  5.63664636E-06                     1_GWF-(1,1848) -5.29744447E-05                     1_GWF-(2,1043)
        189         74          1  2.86050873E-07                      1_GWF-(3,417) -2.14963568E-05                     1_GWF-(2,1966)
        190         75          1  6.96169037E-06                     1_GWF-(2,1966) -5.19681852E-05                     1_GWF-(2,1353)
        191         76          1  2.45393259E-07                     1_GWF-(1,1199) -1.62671590E-05                     1_GWF-(2,2458)
        192         77          1  2.19753511E-06                     1_GWF-(1,1848) -3.29794307E-05                     1_GWF-(2,1043)
 --------------------------------------------------------------------------------------------------------------------------------------


 UBDSV1 SAVING     FLOW-JA-FACE ON UNIT   1016 AT TIME STEP      1, STRESS PERIOD      1
 UBDSV06 SAVING       DATA-SPDIS IN MODEL PROJECT          PACKAGE NPF             CONNECTED TO MODEL PROJECT          PACKAGE NPF              ON UNIT   1016 AT TIME STEP      1, STRESS PERIOD      1
 UBDSV06 SAVING              WEL IN MODEL PROJECT          PACKAGE PROJECT         CONNECTED TO MODEL PROJECT          PACKAGE WEL_0            ON UNIT   1016 AT TIME STEP      1, STRESS PERIOD      1
 UBDSV06 SAVING             RCHA IN MODEL PROJECT          PACKAGE PROJECT         CONNECTED TO MODEL PROJECT          PACKAGE RCHA_0           ON UNIT   1016 AT TIME STEP      1, STRESS PERIOD      1
 UBDSV06 SAVING              CHD IN MODEL PROJECT          PACKAGE PROJECT         CONNECTED TO MODEL PROJECT          PACKAGE CHD_0            ON UNIT   1016 AT TIME STEP      1, STRESS PERIOD      1
 UBDSV06 SAVING              SFR IN MODEL PROJECT          PACKAGE PROJECT         CONNECTED TO MODEL PROJECT          PACKAGE SFR_0            ON UNIT   1016 AT TIME STEP      1, STRESS PERIOD      1

 SFR PACKAGE (SFR_0) FLOW RATES   PERIOD      1   STEP        1
 ----------------------------------------------------------------------------------------
   NUMBER   CELLID                    RATE       NAME                                    
 ----------------------------------------------------------------------------------------
     1      (3,19)               -6.7900490      UPSTREAM                                
     2      (3,21)               -7.3645177      UPSTREAM                                
     3      (3,24)               -7.5789796      UPSTREAM                                
     4      (3,26)               -7.8571385      UPSTREAM                                
     5      (3,30)               -7.9345920      UPSTREAM                                
     6      (3,32)               -8.1698332      UPSTREAM                                
     7      (3,35)               -8.2281781      UPSTREAM                                
     8      (3,37)               -8.4496242      UPSTREAM                                
     9      (3,51)               -8.4642772      UPSTREAM                                
     10     (3,53)               -8.7056121      UPSTREAM                                
     11     (3,56)               -9.3170263      UPSTREAM                                
     12     (3,58)               -9.3843830      UPSTREAM                                
     13     (3,59)               -3.2598701      UPSTREAM                                
     14     (3,63)               -6.7578356      UPSTREAM                                
     15     (3,65)               -7.4921177      UPSTREAM                                
     16     (3,68)               -7.8813603      UPSTREAM                                
     17     (3,70)               -8.4215931      UPSTREAM                                
     18     (3,109)              -8.8773218      UPSTREAM                                
     19     (3,111)              -10.692669      UPSTREAM                                
     20     (3,114)              -5.3352699      UPSTREAM                                
     21     (3,124)              -5.9137607      UPSTREAM                                
     22     (3,126)              -7.5922074      UPSTREAM                                
     23     (3,130)              -8.7174899      UPSTREAM                                
     24     (3,132)              -8.5126844      UPSTREAM                                
     25     (3,133)              -3.7842011      UPSTREAM                                
     26     (3,136)              -6.9916267      UPSTREAM                                
     27     (3,138)              -8.2239047      UPSTREAM                                
     28     (3,149)              -10.862784      UPSTREAM                                
     29     (3,151)              -0.68879332     UPSTREAM                                
     30     (3,154)              -7.6161236      UPSTREAM                                
     31     (3,157)              -7.9507870      UPSTREAM                                
     32     (3,159)              -8.8134386      UPSTREAM                                
     33     (3,166)              -7.1987007      UPSTREAM                                
     34     (3,167)              -4.6782983      UPSTREAM                                
     35     (3,169)              -6.8832989      UPSTREAM                                
     36     (3,172)              -8.0713590      UPSTREAM                                
     37     (3,174)              -10.215414      UPSTREAM                                
     38     (3,179)              -2.2921247      UPSTREAM                                
     39     (3,218)              -7.5863370      UPSTREAM                                
     40     (3,220)              -8.0417954      UPSTREAM                                
     41     (3,223)              -10.007815      UPSTREAM                                
     42     (3,224)              -4.0963887      UPSTREAM                                
     43     (3,226)              -9.8592327      UPSTREAM                                
     44     (3,229)              -2.6119431      UPSTREAM                                
     45     (3,233)              -9.7905214      UPSTREAM                                
     46     (3,234)              -0.38118495     UPSTREAM                                
     47     (3,236)              -8.1721331      UPSTREAM                                
     48     (3,239)              -3.5708983      UPSTREAM                                
     49     (3,257)              -6.2139769      UPSTREAM                                
     50     (3,259)              -5.1777975      UPSTREAM                                
     51     (3,260)              -5.1895503      UPSTREAM                                
     52     (3,265)              -5.7798839      UPSTREAM                                
     53     (3,268)              -4.2183282      UPSTREAM                                
     54     (3,270)              -6.0477463      UPSTREAM                                
     55     (3,271)              -3.4850490      UPSTREAM                                
     56     (3,274)              -6.6770786      UPSTREAM                                
     57     (3,279)              -1.1439076      UPSTREAM                                
     58     (3,281)              -6.1688656      UPSTREAM                                
     59     (3,288)              -3.5838266      UPSTREAM                                
     60     (3,289)              -4.7707613      UPSTREAM                                
     61     (3,291)              -4.9812058      UPSTREAM                                
     62     (3,294)              -3.6697883      UPSTREAM                                
     63     (3,297)              -5.4070032      UPSTREAM                                
     64     (3,299)              -4.0105956      UPSTREAM                                
     65     (3,300)              -3.9347611      UPSTREAM                                
     66     (3,336)              -4.8525570      UPSTREAM                                
     67     (3,338)              -6.1393260      UPSTREAM                                
     68     (3,341)              -1.9495976      UPSTREAM                                
     69     (3,351)              -4.9830561      UPSTREAM                                
     70     (3,353)              -5.2333274      UPSTREAM                                
     71     (3,357)              -5.4328107      UPSTREAM                                
     72     (3,358)              -2.0745413      UPSTREAM                                
     73     (3,360)              -5.1991036      UPSTREAM                                
     74     (3,363)              -5.1042397      UPSTREAM                                
     75     (3,365)              -5.6557715      UPSTREAM                                
     76     (3,376)              -4.8356464      UPSTREAM                                
     77     (3,379)              -3.3441137      UPSTREAM                                
     78     (3,381)              -5.2173163      UPSTREAM                                
     79     (3,384)              -5.0867939      UPSTREAM                                
     80     (3,386)              -5.1919820      UPSTREAM                                
     81     (3,393)              -5.0807371      UPSTREAM                                
     82     (3,395)              -5.2035511      UPSTREAM                                
     83     (3,398)              -5.0751303      UPSTREAM                                
     84     (3,400)              -5.1794252      UPSTREAM                                
     85     (3,442)              -4.9083742      UPSTREAM                                
     86     (3,444)              -5.0007241      UPSTREAM                                
     87     (3,447)              -4.7872607      UPSTREAM                                
     88     (3,449)              -4.8476852      UPSTREAM                                
     89     (3,456)              -4.4801656      UPSTREAM                                
     90     (3,458)              -4.5110380      UPSTREAM                                
     91     (3,463)              -1.3686011      UPSTREAM                                
     92     (3,464)              -4.2513474      UPSTREAM                                
     93     (3,466)              -3.5575531      UPSTREAM                                
     94     (3,484)               4.7564870      UPSTREAM                                
     95     (3,486)              -5.2340084      UPSTREAM                                
     96     (3,488)              -4.3227103      UPSTREAM                                
     97     (3,491)              -3.5963702      UPSTREAM                                
     98     (3,492)              -3.6039359      UPSTREAM                                
     99     (3,493)              -2.4244881      UPSTREAM                                
    100     (3,496)              -3.8535616      UPSTREAM                                
    101     (3,498)              -3.5296782      UPSTREAM                                
    102     (3,501)              -2.8754179      UPSTREAM                                
    103     (3,503)              -0.44728217     UPSTREAM                                
    104     (3,556)               5.7621034      UPSTREAM                                
    105     (3,557)              -1.3742243      UPSTREAM                                
    106     (3,558)               0.36664444     UPSTREAM                                
    107     (3,559)               3.4772526      UPSTREAM                                
    108     (3,567)              -1.5087942      UPSTREAM                                
    109     (3,572)               3.4441615      UPSTREAM                                
    110     (3,574)              -2.6968747      UPSTREAM                                
    111     (3,575)              -1.7169534      UPSTREAM                                
    112     (3,576)               0.22258518     UPSTREAM                                
    113     (3,577)              -1.3684081      UPSTREAM                                
    114     (3,578)               0.26615662     UPSTREAM                                
    115     (3,582)              -1.6387277      UPSTREAM                                
    116     (3,583)              -6.3800301      UPSTREAM                                
    117     (3,584)              -2.8679038      UPSTREAM                                
    118     (3,585)              -6.3599345      UPSTREAM                                
    119     (3,586)              -2.9454311      UPSTREAM                                
    120     (3,589)              -1.7336487      UPSTREAM                                
    121     (3,604)              -8.9098846      UPSTREAM                                
    122     (3,605)              -4.0396379      UPSTREAM                                
    123     (3,606)              -4.7673410      UPSTREAM                                
    124     (3,610)              -2.4523689      UPSTREAM                                
    125     (3,611)              -5.5650615      UPSTREAM                                
    126     (3,613)              -3.0489127      UPSTREAM                                
    127     (3,620)              -2.3588774      UPSTREAM                                
    128     (3,621)              -1.3047279      UPSTREAM                                
    129     (3,623)              -4.9532001      UPSTREAM                                
    130     (3,624)              -3.1685013      UPSTREAM                                
    131     (3,625)              -3.1178323      UPSTREAM                                
    132     (3,627)              -4.6853177      UPSTREAM                                
    133     (3,629)              -1.2314178      UPSTREAM                                
    134     (3,639)              -4.2559106      UPSTREAM                                
    135     (3,640)              -6.8224091      UPSTREAM                                
    136     (3,641)              -7.9042104      UPSTREAM                                
    137     (3,643)              -4.1423123      UPSTREAM                                
    138     (3,693)              -4.8740021      UPSTREAM                                
    139     (3,695)              -7.1314045      UPSTREAM                                
    140     (3,696)              -2.5076073      UPSTREAM                                
    141     (3,697)              -8.6640913      UPSTREAM                                
    142     (3,708)              -5.7731584      UPSTREAM                                
    143     (3,710)              -5.3708693      UPSTREAM                                
    144     (3,713)              -10.055397      UPSTREAM                                
    145     (3,715)              -6.7804204      UPSTREAM                                
    146     (3,716)              -0.37208633     UPSTREAM                                
    147     (3,725)              -5.3097542      UPSTREAM                                
    148     (3,727)              -4.5777893      UPSTREAM                                
    149     (3,730)              -2.8535273      UPSTREAM                                
    150     (3,731)              -5.5660637      UPSTREAM                                
    151     (3,732)              -0.54315664     UPSTREAM                                
    152     (3,737)              -2.3624667      UPSTREAM                                
    153     (3,738)              -11.070851      UPSTREAM                                
    154     (3,740)              -8.7044931      UPSTREAM                                
    155     (3,741)              -0.84601184     UPSTREAM                                
    156     (3,742)              -9.9310488      UPSTREAM                                
    157     (3,743)              -11.182991      UPSTREAM                                
    158     (3,747)              -17.104673      UPSTREAM                                
    159     (3,748)              -12.646649      UPSTREAM                                
    160     (3,749)              -4.4292111      UPSTREAM                                
    161     (3,754)              -15.828623      UPSTREAM                                
    162     (3,756)              -6.6627108      UPSTREAM                                
    163     (3,809)              -8.7644165      UPSTREAM                                
    164     (3,811)              -6.9203725      UPSTREAM                                
    165     (3,814)              -5.2439809      UPSTREAM                                
    166     (3,816)              -4.5353312      UPSTREAM                                
    167     (3,821)              -4.9285297      UPSTREAM                                
    168     (3,823)              -7.0319097      UPSTREAM                                
    169     (3,826)              -5.8083077      UPSTREAM                                
    170     (3,828)              -5.5012335      UPSTREAM                                
    171     (3,829)              -4.5136251      UPSTREAM                                
    172     (3,842)              -5.4271535      UPSTREAM                                
    173     (3,844)              -5.2368247      UPSTREAM                                
    174     (3,847)              -4.8562781      UPSTREAM                                
    175     (3,849)              -4.8380699      UPSTREAM                                
    176     (3,856)              -4.4716858      UPSTREAM                                
    177     (3,858)              -4.4793736      UPSTREAM                                
    178     (3,861)              -4.2216660      UPSTREAM                                
    179     (3,863)              -4.2522710      UPSTREAM                                
    180     (3,908)              -3.9808264      UPSTREAM                                
    181     (3,910)              -4.0356533      UPSTREAM                                
    182     (3,913)              -3.8797027      UPSTREAM                                
    183     (3,915)              -3.9797888      UPSTREAM                                
    184     (3,922)              -3.9139267      UPSTREAM                                
    185     (3,924)              -4.3849181      UPSTREAM                                
    186     (3,927)              -5.4024209      UPSTREAM                                
    187     (3,932)              -0.20819229     UPSTREAM                                
    188     (3,934)              -2.0331732      UPSTREAM                                
    189     (3,945)              -2.9281954      UPSTREAM                                
    190     (3,947)              -3.0883332      UPSTREAM                                
    191     (3,948)              -0.18693460     UPSTREAM                                
    192     (3,951)              -1.2179106      UPSTREAM                                
    193     (3,953)              -2.2654173      UPSTREAM                                
    194     (3,960)              -1.3955383      UPSTREAM                                
    195     (3,963)               1.19894761E-02 UPSTREAM                                
    196     (3,965)              -1.5295212      UPSTREAM                                
    197     (3,968)              -0.20513446     UPSTREAM                                
    198     (3,969)              -0.26693575     UPSTREAM                                
    199     (3,981)               0.44433507     UPSTREAM                                
    200     (3,983)               0.36632125     UPSTREAM                                
    201     (3,984)               0.94290074     UPSTREAM                                
    202     (3,1065)              0.77399059     UPSTREAM                                
    203     (3,1068)              1.4944670      UPSTREAM                                
    204     (3,1070)              1.0776515      UPSTREAM                                
    205     (3,1071)              1.9591554      UPSTREAM                                
    206     (3,1074)              1.2619325      UPSTREAM                                
    207     (3,1079)              2.5022953      UPSTREAM                                
    208     (3,1081)              1.2835552      UPSTREAM                                
    209     (3,1082)              2.8496471      UPSTREAM                                
    210     (3,1089)              1.0484411      UPSTREAM                                
    211     (3,1092)              3.5363143      UPSTREAM                                
    212     (3,1094)              0.28509038     UPSTREAM                                
    213     (3,1095)              3.3165440      UPSTREAM                                
    214     (3,1105)              3.8177358      UPSTREAM                                
    215     (3,1108)              0.10844151     UPSTREAM                                
    216     (3,1109)              3.8026325      UPSTREAM                                
    217     (3,1112)              3.9759142      UPSTREAM                                
    218     (3,1113)              2.6486877      UPSTREAM                                
    219     (3,1115)              2.7779629      UPSTREAM                                
    220     (3,1120)              3.9799514      UPSTREAM                                
    221     (3,1121)              4.7425727      UPSTREAM                                
    222     (3,1132)              1.9360844      UPSTREAM                                
    223     (3,1135)              4.8435125      UPSTREAM                                
    224     (3,1136)              4.5713873      UPSTREAM                                
    225     (3,1138)              3.3390824      UPSTREAM                                
    226     (3,1153)              4.7478612      UPSTREAM                                
    227     (3,1156)              3.4634741      UPSTREAM                                
    228     (3,1157)              4.8681900      UPSTREAM                                
    229     (3,1159)              3.5121583      UPSTREAM                                
    230     (3,1162)              5.0084573      UPSTREAM                                
    231     (3,1169)              4.7281125      UPSTREAM                                
    232     (3,1171)              1.7053398      UPSTREAM                                
    233     (3,1172)              5.2677601      UPSTREAM                                
    234     (3,1175)              4.1111046      UPSTREAM                                
    235     (3,1177)              1.1769993      UPSTREAM                                
    236     (3,1182)              5.0057099      UPSTREAM                                
    237     (3,1263)              3.5699039      UPSTREAM                                
    238     (3,1265)              0.55659321     UPSTREAM                                
    239     (3,1266)              4.7062791      UPSTREAM                                
    240     (3,1269)              3.1797646      UPSTREAM                                
    241     (3,1272)              0.30167747     UPSTREAM                                
    242     (3,1274)              4.1083133      UPSTREAM                                
    243     (3,1278)              2.2608614      UPSTREAM                                
    244     (3,1279)              1.1902562      UPSTREAM                                
    245     (3,1281)              3.1610444      UPSTREAM                                
    246     (3,1284)              1.6277627      UPSTREAM                                
    247     (3,1294)              1.7147831      UPSTREAM                                
    248     (3,1296)              2.3735309      UPSTREAM                                
    249     (3,1307)              1.0571725      UPSTREAM                                
    250     (3,1308)              1.5752801      UPSTREAM                                
    251     (3,1310)              1.8119576      UPSTREAM                                
    252     (3,1313)              0.65359198     UPSTREAM                                
    253     (3,1316)              1.6222063      UPSTREAM                                
    254     (3,1318)              1.1794254      UPSTREAM                                
    255     (3,1325)              0.31578040     UPSTREAM                                
    256     (3,1326)              1.1562832      UPSTREAM                                
    257     (3,1328)              0.73233718     UPSTREAM                                
    258     (3,1331)              9.96704526E-02 UPSTREAM                                
    259     (3,1336)              1.0045033      UPSTREAM                                
    260     (3,1338)              0.47732180     UPSTREAM                                
    261     (3,1380)              7.90328206E-02 UPSTREAM                                
    262     (3,1382)             -0.26311604     UPSTREAM                                
    263     (3,1385)             -0.51074732     UPSTREAM                                
    264     (3,1387)             -0.98052442     UPSTREAM                                
    265     (3,1394)             -0.11339831     UPSTREAM                                
    266     (3,1395)             -0.50022490     UPSTREAM                                
    267     (3,1397)             -0.81754729     UPSTREAM                                
    268     (3,1400)             -0.97954391     UPSTREAM                                
    269     (3,1402)             -1.2238646      UPSTREAM                                
    270     (3,1413)             -1.3434988      UPSTREAM                                
    271     (3,1415)             -1.7082652      UPSTREAM                                
    272     (3,1418)             -2.1424428      UPSTREAM                                
    273     (3,1421)             -0.36508728     UPSTREAM                                
    274     (3,1423)             -1.6030574      UPSTREAM                                
    275     (3,1427)             -1.8561947      UPSTREAM                                
    276     (3,1429)             -2.6379193      UPSTREAM                                
    277     (3,1432)             -5.49151986E-02 UPSTREAM                                
    278     (3,1433)             -2.0556161      UPSTREAM                                
    279     (3,1435)             -2.5121204      UPSTREAM                                
    280     (3,1450)             -0.78425590     UPSTREAM                                
    281     (3,1486)             -2.2126918      UPSTREAM                                
    282     (3,1488)             -2.0993030      UPSTREAM                                
    283     (3,1489)             -1.3400138      UPSTREAM                                
    284     (3,1492)             -2.3723482      UPSTREAM                                
    285     (3,1494)             -1.9049805      UPSTREAM                                
    286     (3,1497)             -1.7631248      UPSTREAM                                
    287     (3,1504)             -2.6220842      UPSTREAM                                
    288     (3,1506)             -1.1940980      UPSTREAM                                
    289     (3,1507)             -2.1766526      UPSTREAM                                
    290     (3,1510)             -2.7889436      UPSTREAM                                
    291     (3,1515)             -0.97897047     UPSTREAM                                
    292     (3,1517)             -3.2691657      UPSTREAM                                
    293     (3,1528)             -5.50516332E-03 UPSTREAM                                
    294     (3,1529)             -3.1855139      UPSTREAM                                
    295     (3,1531)             -1.2318320      UPSTREAM                                
    296     (3,1534)             -2.7625494      UPSTREAM                                
    297     (3,1537)             -1.7450213      UPSTREAM                                
    298     (3,1538)             -2.4080962      UPSTREAM                                
    299     (3,1540)             -2.1571478      UPSTREAM                                
    300     (3,1550)             -2.1362963      UPSTREAM                                
    301     (3,1554)             -2.3727279      UPSTREAM                                
    302     (3,1555)             -1.8227357      UPSTREAM                                
    303     (3,1557)             -2.8073866      UPSTREAM                                
    304     (3,1560)             -1.2532635      UPSTREAM                                
    305     (3,1563)             -3.1522796      UPSTREAM                                
    306     (3,1565)             -0.44139766     UPSTREAM                                
    307     (3,1566)             -3.2209261      UPSTREAM                                
    308     (3,1605)             -1.5549001      UPSTREAM                                
    309     (3,1610)             -2.7000614      UPSTREAM                                
    310     (3,1612)             -2.1196679      UPSTREAM                                
    311     (3,1613)             -2.3594491      UPSTREAM                                
    312     (3,1616)             -2.6635541      UPSTREAM                                
    313     (3,1619)             -1.5521372      UPSTREAM                                
    314     (3,1621)             -3.2780707      UPSTREAM                                
    315     (3,1625)             -0.39817481     UPSTREAM                                
    316     (3,1626)             -3.3772926      UPSTREAM                                
    317     (3,1628)             -1.4583230      UPSTREAM                                
    318     (3,1643)             -3.1129200      UPSTREAM                                
    319     (3,1646)             -1.9787115      UPSTREAM                                
    320     (3,1647)             -2.7997195      UPSTREAM                                
    321     (3,1649)             -2.7154991      UPSTREAM                                
    322     (3,1652)             -1.9684468      UPSTREAM                                
    323     (3,1663)             -3.7169243      UPSTREAM                                
    324     (3,1665)             -0.38585021     UPSTREAM                                
    325     (3,1666)             -4.4398268      UPSTREAM                                
    326     (3,1669)             -3.2260057      UPSTREAM                                
    327     (3,1671)             -3.1089384      UPSTREAM                                
    328     (3,1678)             -2.4279708      UPSTREAM                                
    329     (3,1683)             -0.83919608     UPSTREAM                                
    330     (3,1685)             -3.4360279      UPSTREAM                                
    331     (3,1688)             -1.8639159      UPSTREAM                                
    332     (3,1690)              0.49072924     UPSTREAM                                
    333     (3,1739)              1.5371493      UPSTREAM                                
    334     (3,1740)              0.37930767     UPSTREAM                                
    335     (3,1741)              1.7361093      UPSTREAM                                
    336     (3,1742)             -0.37358624     UPSTREAM                                
    337     (3,1755)              0.36851434     UPSTREAM                                
    338     (3,1756)             -0.82624377     UPSTREAM                                
    339     (3,1757)             -0.13800932     UPSTREAM                                
    340     (3,1758)             -0.38421535     UPSTREAM                                
    341     (3,1759)             -0.86364573     UPSTREAM                                
    342     (3,1760)              0.95181879     UPSTREAM                                
    343     (3,1762)             -0.34728406     UPSTREAM                                
    344     (3,1770)             -1.5258875      UPSTREAM                                
    345     (3,1772)             -1.0396857      UPSTREAM                                
    346     (3,1773)             -1.9021417      UPSTREAM                                
    347     (3,1774)             -2.3904621      UPSTREAM                                
    348     (3,1775)             -3.6659670      UPSTREAM                                
    349     (3,1776)             -0.89390711     UPSTREAM                                
    350     (3,1779)             -3.7357261      UPSTREAM                                
    351     (3,1780)             -4.4581954      UPSTREAM                                
    352     (3,1781)             -2.9830076      UPSTREAM                                
    353     (3,1786)             -4.7660920      UPSTREAM                                
    354     (3,1798)             -1.0465302      UPSTREAM                                
    355     (3,1799)             -1.6257494      UPSTREAM                                
    356     (3,1800)             -4.0318176      UPSTREAM                                
    357     (3,1801)             -7.6259480      UPSTREAM                                
    358     (3,1802)             -1.8073765      UPSTREAM                                
    359     (3,1804)             -9.5311674      UPSTREAM                                
    360     (3,1806)             -7.2819531      UPSTREAM                                
    361     (3,1807)             -2.3818249      UPSTREAM                                
    362     (3,1812)             -4.2426724      UPSTREAM                                
    363     (3,1813)             -6.9825155      UPSTREAM                                
    364     (3,1814)             -4.2034821      UPSTREAM                                
    365     (3,1815)             -6.1195594      UPSTREAM                                
    366     (3,1819)             -2.4756983      UPSTREAM                                
    367     (3,1872)             -3.9596073      UPSTREAM                                
    368     (3,1874)             -4.5842881      UPSTREAM                                
    369     (3,1877)             -3.9397142      UPSTREAM                                
    370     (3,1880)             -6.2933224      UPSTREAM                                
    371     (3,1885)             -1.2540927      UPSTREAM                                
    372     (3,1887)             -3.4671426      UPSTREAM                                
    373     (3,1894)             -3.1259881      UPSTREAM                                
    374     (3,1896)             -3.1429929      UPSTREAM                                
    375     (3,1899)             -3.0416001      UPSTREAM                                
    376     (3,1901)             -3.5577509      UPSTREAM                                
    377     (3,1912)             -0.17695620     UPSTREAM                                
    378     (3,1913)             -3.1258301      UPSTREAM                                
    379     (3,1915)             -2.0108959      UPSTREAM                                
    380     (3,1918)             -2.4066256      UPSTREAM                                
    381     (3,1921)             -2.4565050      UPSTREAM                                
    382     (3,1922)             -1.3339831      UPSTREAM                                
    383     (3,1924)             -2.9742071      UPSTREAM                                
    384     (3,1928)             -1.0722998      UPSTREAM                                
    385     (3,1938)             -2.8681264      UPSTREAM                                
    386     (3,1940)             -1.9506903      UPSTREAM                                
    387     (3,1941)             -2.5579996      UPSTREAM                                
    388     (3,1944)             -3.1882816      UPSTREAM                                
    389     (3,1946)             -0.11618385     UPSTREAM                                
    390     (3,1949)             -4.0950663      UPSTREAM                                
    391     (3,2006)             -3.0324758      UPSTREAM                                
    392     (3,2008)             -2.8503792      UPSTREAM                                
    393     (3,2011)             -2.5911199      UPSTREAM                                
    394     (3,2012)             -0.50797371     UPSTREAM                                
    395     (3,2014)             -4.1753774      UPSTREAM                                
    396     (3,2021)             -3.5092035      UPSTREAM                                
    397     (3,2022)             -0.70343560     UPSTREAM                                
    398     (3,2023)             -3.9798123      UPSTREAM                                
    399     (3,2025)             -2.4088701      UPSTREAM                                
    400     (3,2027)             -2.7283913      UPSTREAM                                
    401     (3,2043)              1.9225379      UPSTREAM                                
    402     (3,2046)              2.0231789      UPSTREAM                                
    403     (3,2047)              7.9382243      UPSTREAM                                
    404     (3,2048)              2.7073093      UPSTREAM                                
    405     (3,2050)             -2.3748801      UPSTREAM                                
    406     (3,2052)             -2.8257921      UPSTREAM                                
    407     (3,2053)             -2.7214328      UPSTREAM                                
    408     (3,2057)             -1.0575228      UPSTREAM                                
    409     (3,2058)             -3.1838865      UPSTREAM                                
    410     (3,2059)             -2.4478781      UPSTREAM                                
    411     (3,2066)             -3.5603694      DOWNSTREAM                              
    412     (3,2068)             -0.37073042     DOWNSTREAM                              
    413     (3,2123)              0.60928281     DOWNSTREAM                              
    414     (3,2124)             -1.2532647      DOWNSTREAM                              
    415     (3,2125)              2.5172067      DOWNSTREAM                              
    416     (3,2127)             -2.0991214      DOWNSTREAM                              
    417     (3,2128)             -1.8493286      DOWNSTREAM                              
    418     (3,2129)              0.77061938     DOWNSTREAM                              
    419     (3,2130)              0.19357962     DOWNSTREAM                              
    420     (3,2136)             -1.7891071      DOWNSTREAM                              
    421     (3,2137)             -1.0388834      DOWNSTREAM                              
    422     (3,2138)              1.5412726      DOWNSTREAM                              
    423     (3,2140)             -1.86186439E-02 DOWNSTREAM                              
    424     (3,2142)              8.8422177      DOWNSTREAM                              
    425     (3,2143)              1.8278516      DOWNSTREAM                              
    426     (3,2147)             -1.0101769      DOWNSTREAM                              
    427     (3,2163)             -3.3744020      DOWNSTREAM                              
    428     (3,2164)             -1.4117038      DOWNSTREAM                              
    429     (3,2169)             -2.4011364      DOWNSTREAM                              
    430     (3,2173)             -2.7419340      DOWNSTREAM                              
    431     (3,2174)             -3.8255770      DOWNSTREAM                              
    432     (3,2175)             -1.1938715      DOWNSTREAM                              
    433     (3,2176)             -0.71639416     DOWNSTREAM                              
    434     (3,2178)             -2.0544339      DOWNSTREAM                              
    435     (3,2179)             -4.8195275      DOWNSTREAM                              
    436     (3,2180)             -3.5105064      DOWNSTREAM                              
    437     (3,2182)             -1.3162832      DOWNSTREAM                              
    438     (3,2192)             -4.0935545      DOWNSTREAM                              
    439     (3,2193)             -3.3237741      DOWNSTREAM                              
    440     (3,2196)             -2.8431675      DOWNSTREAM                              
    441     (3,2197)             -2.7598179      DOWNSTREAM                              
    442     (3,2202)             -2.4655029      DOWNSTREAM                              
    443     (3,2203)             -2.4557676      DOWNSTREAM                              
    444     (3,2206)             -2.2582903      DOWNSTREAM                              
    445     (3,2207)             -2.1643939      DOWNSTREAM                              
    446     (3,2216)             -11.652283      DOWNSTREAM                              
    447     (3,2217)             -0.11831228     DOWNSTREAM                              
    448     (3,2234)             -2.6138315      DOWNSTREAM                              
    449     (3,2235)             -2.5404237      DOWNSTREAM                              
    450     (3,2238)             -2.4294053      DOWNSTREAM                              
    451     (3,2239)             -2.4952083      DOWNSTREAM                              
    452     (3,2244)             -2.4229297      DOWNSTREAM                              
    453     (3,2245)             -2.4963737      DOWNSTREAM                              
    454     (3,2248)             -2.4465284      DOWNSTREAM                              
    455     (3,2249)             -2.4406219      DOWNSTREAM                              
[...]
 DOWNSTREAM                                  900     (3,4575)              16.622       1.9046       9.4577       16.628       373.97      -5.02097E-03
 DOWNSTREAM                                  901     (3,4578)              16.618       1.9038       9.4641       16.626       373.88      -5.40314E-03
 DOWNSTREAM                                  902     (3,4580)              16.615       1.9031       9.4704       16.623       373.79      -5.79347E-03
 DOWNSTREAM                                  903     (3,4634)              16.612       1.9023       9.4767       16.620       373.71      -6.01833E-03
 DOWNSTREAM                                  904     (3,4636)              16.608       1.9016       9.4831       16.617       373.62      -6.40105E-03
 DOWNSTREAM                                  905     (3,4641)              16.606       1.9009       9.4885       16.612       267.28      -4.63912E-03
 DOWNSTREAM                                  906     (3,4642)              16.603       1.9003       9.4939       16.614       374.52      -7.81563E-03
 DOWNSTREAM                                  907     (3,4644)              16.600       1.8997       9.4983       16.623       142.36      -1.62707E-02
 DOWNSTREAM                                  908     (3,4652)              16.599       1.8994       9.5008       16.604       150.16      -3.43466E-03
 DOWNSTREAM                                  909     (3,4654)              16.597       1.8989       9.5055       16.605       409.43      -5.89693E-03
 DOWNSTREAM                                  910     (3,4655)              16.594       1.8983       9.5108       16.603       208.58      -6.15673E-03
 DOWNSTREAM                                  911     (3,4656)              16.592       1.8978       9.5142       16.608       200.74      -1.10713E-02
 DOWNSTREAM                                  912     (3,4658)              16.589       1.8972       9.5194       16.597       409.22      -5.27214E-03
 DOWNSTREAM                                  913     (3,4660)              16.587       1.8966       9.5251       16.600       259.11      -9.39287E-03
 DOWNSTREAM                                  914     (3,4672)              16.584       1.8959       9.5307       16.591       409.04      -5.30435E-03
 DOWNSTREAM                                  915     (3,4673)              16.581       1.8954       9.5350       16.594       91.539      -9.26973E-03
 DOWNSTREAM                                  916     (3,4674)              16.580       1.8950       9.5385       16.590       317.40      -7.18449E-03
 DOWNSTREAM                                  917     (3,4678)              16.578       1.8946       9.5414       16.594       33.106      -1.13773E-02
 DOWNSTREAM                                  918     (3,4679)              16.576       1.8942       9.5452       16.583       408.82      -5.00116E-03
 DOWNSTREAM                                  919     (3,4681)              16.573       1.8934       9.5519       16.582       375.63      -6.60253E-03
 DOWNSTREAM                                  920     (3,4688)              16.569       1.8926       9.5585       16.577       408.62      -5.24433E-03
 DOWNSTREAM                                  921     (3,4690)              16.566       1.8918       9.5655       16.573       408.51      -5.37411E-03
 DOWNSTREAM                                  922     (3,4692)              16.562       1.8910       9.5722       16.569       383.14      -4.63166E-03
 DOWNSTREAM                                  923     (3,4693)              16.560       1.8906       9.5757       16.590       25.273      -2.07587E-02
 DOWNSTREAM                                  924     (3,4694)              16.558       1.8901       9.5793       16.564       408.31      -3.99740E-03
 DOWNSTREAM                                  925     (3,4733)              16.555       1.8894       9.5856       16.561       324.63      -4.19404E-03
 DOWNSTREAM                                  926     (3,4735)              16.552       1.8887       9.5918       16.557       408.12      -3.91050E-03
 DOWNSTREAM                                  927     (3,4737)              16.549       1.8880       9.5975       16.557       266.20      -5.58544E-03
 DOWNSTREAM                                  928     (3,4738)              16.547       1.8876       9.6010       16.561       141.82      -9.66675E-03
 DOWNSTREAM                                  929     (3,4739)              16.545       1.8871       9.6056       16.551       396.72      -4.33525E-03
 DOWNSTREAM                                  930     (3,4746)              16.543       1.8866       9.6092       16.571       26.649      -1.94183E-02
 DOWNSTREAM                                  931     (3,4748)              16.541       1.8862       9.6127       16.548       389.54      -4.81885E-03
 DOWNSTREAM                                  932     (3,4749)              16.538       1.8855       9.6191       16.546       362.80      -6.04678E-03
 DOWNSTREAM                                  933     (3,4754)              16.534       1.8847       9.6255       16.541       389.35      -4.72021E-03
 DOWNSTREAM                                  934     (3,4755)              16.533       1.8843       9.6291       16.562       26.630      -2.05879E-02
 DOWNSTREAM                                  935     (3,4756)              16.531       1.8839       9.6324       16.539       362.63      -5.30025E-03
 DOWNSTREAM                                  936     (3,4766)              16.528       1.8832       9.6388       16.535       389.17      -5.01121E-03
 DOWNSTREAM                                  937     (3,4768)              16.524       1.8824       9.6454       16.531       388.25      -4.46558E-03
 DOWNSTREAM                                  938     (3,4771)              16.521       1.8816       9.6519       16.527       370.86      -4.12864E-03
 DOWNSTREAM                                  939     (3,4773)              16.518       1.8809       9.6582       16.523       370.78      -3.84872E-03
 DOWNSTREAM                                  940     (3,4780)              16.515       1.8802       9.6639       16.522       292.21      -4.78193E-03
 DOWNSTREAM                                  941     (3,4783)              16.512       1.8796       9.6695       16.517       370.62      -3.61385E-03
 DOWNSTREAM                                  942     (3,4785)              16.509       1.8789       9.6758       16.513       370.54      -3.45879E-03
 DOWNSTREAM                                  943     (3,4786)              16.505       1.8781       9.6822       16.512       370.46      -4.59083E-03
 DOWNSTREAM                                  944     (3,4788)              16.503       1.8777       9.6860       16.521       78.424      -1.23457E-02
 DOWNSTREAM                                  945     (3,4793)              16.503       1.8775       9.6874       16.551       83.271      -3.37922E-02
 DOWNSTREAM                                  946     (3,4839)              16.501       1.8771       9.6913       16.506       370.33      -3.77341E-03
 DOWNSTREAM                                  947     (3,4841)              16.497       1.8763       9.6976       16.503       370.25      -3.66214E-03
 DOWNSTREAM                                  948     (3,4844)              16.494       1.8756       9.7039       16.499       370.17      -3.50361E-03
 DOWNSTREAM                                  949     (3,4846)              16.491       1.8749       9.7102       16.496       370.08      -3.48680E-03
 DOWNSTREAM                                  950     (3,4853)              16.488       1.8742       9.7165       16.492       369.81      -3.28003E-03
 DOWNSTREAM                                  951     (3,4855)              16.484       1.8734       9.7228       16.489       368.08      -3.27369E-03
 DOWNSTREAM                                  952     (3,4858)              16.481       1.8727       9.7291       16.486       368.00      -3.08278E-03
 DOWNSTREAM                                  953     (3,4860)              16.478       1.8720       9.7354       16.482       367.92      -3.05828E-03
 DOWNSTREAM                                  954     (3,4871)              16.475       1.8713       9.7417       16.479       367.83      -2.81583E-03
 DOWNSTREAM                                  955     (3,4873)              16.471       1.8705       9.7480       16.475       367.75      -2.79495E-03
 DOWNSTREAM                                  956     (3,4876)              16.468       1.8698       9.7543       16.472       367.67      -2.59551E-03
 DOWNSTREAM                                  957     (3,4878)              16.465       1.8691       9.7606       16.469       367.59      -2.58637E-03
 DOWNSTREAM                                  958     (3,4885)              16.462       1.8684       9.7669       16.465       367.51      -2.38160E-03
 DOWNSTREAM                                  959     (3,4887)              16.458       1.8676       9.7732       16.462       367.43      -2.40824E-03
 DOWNSTREAM                                  960     (3,4890)              16.455       1.8669       9.7795       16.458       367.34      -2.22547E-03
 DOWNSTREAM                                  961     (3,4892)              16.452       1.8662       9.7857       16.455       367.26      -2.23273E-03
 DOWNSTREAM                                  962     (3,4934)              16.449       1.8655       9.7920       16.452       367.18      -1.95299E-03
 DOWNSTREAM                                  963     (3,4936)              16.445       1.8648       9.7983       16.448       367.10      -1.94400E-03
 DOWNSTREAM                                  964     (3,4939)              16.442       1.8641       9.8046       16.445       367.02      -1.68406E-03
 DOWNSTREAM                                  965     (3,4941)              16.439       1.8633       9.8109       16.441       366.94      -1.65453E-03
 DOWNSTREAM                                  966     (3,4948)              16.436       1.8626       9.8172       16.438       366.86      -1.27803E-03
 DOWNSTREAM                                  967     (3,4950)              16.433       1.8619       9.8235       16.434       366.78      -1.19355E-03
 DOWNSTREAM                                  968     (3,4953)              16.429       1.8612       9.8298       16.430       371.97      -7.10854E-04
 DOWNSTREAM                                  969     (3,4954)              16.427       1.8606       9.8348       16.430       206.14      -2.33884E-03
 DOWNSTREAM                                  970     (3,4955)              16.425       1.8603       9.8380       16.426       169.42      -8.51503E-04
 DOWNSTREAM                                  971     (3,4971)              16.423       1.8597       9.8427       16.424       375.48      -7.84046E-04
 DOWNSTREAM                                  972     (3,4973)              16.419       1.8590       9.8491       16.420       375.39      -6.18548E-04
 DOWNSTREAM                                  973     (3,4978)              16.418       1.8586       9.8525       16.419       18.340      -8.31487E-04
 DOWNSTREAM                                  974     (3,4979)              16.416       1.8582       9.8559       16.416       375.31      -1.83523E-04
 DOWNSTREAM                                  975     (3,4981)              16.413       1.8575       9.8622       16.412       356.89       5.13526E-04
 DOWNSTREAM                                  976     (3,4988)              16.409       1.8568       9.8685       16.409       375.14       1.94416E-05
 DOWNSTREAM                                  977     (3,4990)              16.406       1.8561       9.8749       16.406       375.06       3.17923E-04
 DOWNSTREAM                                  978     (3,4993)              16.403       1.8554       9.8813       16.402       374.98       8.69342E-04
 DOWNSTREAM                                  979     (3,4995)              16.400       1.8546       9.8878       16.397       374.90       1.38893E-03
 DOWNSTREAM                                  980     (3,5034)              16.398       1.8542       9.8916       16.388       64.597       6.21841E-03
 DOWNSTREAM                                  981     (3,5037)              16.395       1.8537       9.8959       16.393       437.33       1.84954E-03
 DOWNSTREAM                                  982     (3,5038)              16.393       1.8531       9.9011       16.382       169.77       7.20262E-03
 DOWNSTREAM                                  983     (3,5039)              16.391       1.8527       9.9048       16.388       262.84       1.99960E-03
 DOWNSTREAM                                  984     (3,5043)              16.388       1.8521       9.9108       16.384       426.45       2.51877E-03
 DOWNSTREAM                                  985     (3,5045)              16.385       1.8515       9.9160       16.373       187.31       7.92961E-03
 DOWNSTREAM                                  986     (3,5048)              16.383       1.8510       9.9202       16.383       294.85      -6.37205E-05
 DOWNSTREAM                                  987     (3,5049)              16.381       1.8506       9.9238       16.378       125.83       1.95879E-03
 DOWNSTREAM                                  988     (3,5050)              16.379       1.8501       9.9281       16.378       372.34       4.73709E-04
 DOWNSTREAM                                  989     (3,5058)              16.376       1.8495       9.9333       16.371       238.92       3.45876E-03
 DOWNSTREAM                                  990     (3,5061)              16.373       1.8489       9.9391       16.368       426.04       3.63255E-03
 DOWNSTREAM                                  991     (3,5063)              16.371       1.8484       9.9431       16.342       45.145       1.97239E-02
 DOWNSTREAM                                  992     (3,5064)              16.369       1.8481       9.9464       16.362       335.77       5.05152E-03
 DOWNSTREAM                                  993     (3,5078)              16.366       1.8474       9.9525       16.357       371.17       6.40357E-03
 DOWNSTREAM                                  994     (3,5080)              16.363       1.8467       9.9589       16.352       371.09       7.37391E-03
 DOWNSTREAM                                  995     (3,5083)              16.360       1.8459       9.9653       16.345       371.01       9.86283E-03
 DOWNSTREAM                                  996     (3,5085)              16.357       1.8452       9.9716       16.339       367.28       1.15505E-02
 DOWNSTREAM                                  997     (3,5089)              16.353       1.8445       9.9780       16.327       365.18       1.75064E-02
 DOWNSTREAM                                  998     (3,5091)              16.350       1.8438       9.9843       16.316       365.11       2.25291E-02
 DOWNSTREAM                                  999     (3,5094)              16.347       1.8431       9.9906       16.271       365.03       5.08422E-02
 DOWNSTREAM                                  1000    (3,5096)              16.344       1.8424       9.9969       15.500       0.0000       0.56265    
 ------------------------------------------------------------------------------------------------------------------------------------------------------



 HEAD WILL BE SAVED ON UNIT 1017 AT END OF TIME STEP    1, STRESS PERIOD    1


  SFR_0 BUDGET FOR ENTIRE MODEL AT END OF TIME STEP    1, STRESS PERIOD   1
  ------------------------------------------------------------------------------

     CUMULATIVE SFR_0      L**3       RATES FOR THIS TIME STEP      L**3/T
     ------------------                 ------------------------

           IN:                                      IN:
           ---                                      ---
                 GWF =        3390.3625                   GWF =        3390.3625
            RAINFALL =           0.0000              RAINFALL =           0.0000
         EVAPORATION =           0.0000           EVAPORATION =           0.0000
              RUNOFF =           0.0000                RUNOFF =           0.0000
          EXT-INFLOW =      864000.0000            EXT-INFLOW =      864000.0000
         EXT-OUTFLOW =           0.0000           EXT-OUTFLOW =           0.0000
             STORAGE =           0.0000               STORAGE =           0.0000

            TOTAL IN =      867390.3625              TOTAL IN =      867390.3625

          OUT:                                     OUT:
          ----                                     ----
                 GWF =         295.0553                   GWF =         295.0553
            RAINFALL =           0.0000              RAINFALL =           0.0000
         EVAPORATION =           0.0000           EVAPORATION =           0.0000
              RUNOFF =           0.0000                RUNOFF =           0.0000
          EXT-INFLOW =           0.0000            EXT-INFLOW =           0.0000
         EXT-OUTFLOW =      867095.3072           EXT-OUTFLOW =      867095.3072
             STORAGE =           0.0000               STORAGE =           0.0000

           TOTAL OUT =      867390.3625             TOTAL OUT =      867390.3625

            IN - OUT =      -1.1642E-10              IN - OUT =      -1.1642E-10

 PERCENT DISCREPANCY =          -0.00     PERCENT DISCREPANCY =          -0.00



  VOLUME BUDGET FOR ENTIRE MODEL AT END OF TIME STEP    1, STRESS PERIOD   1
  ---------------------------------------------------------------------------------------------------

     CUMULATIVE VOLUME      L**3       RATES FOR THIS TIME STEP      L**3/T          PACKAGE NAME    
     ------------------                 ------------------------                     ----------------

           IN:                                      IN:
           ---                                      ---
                 WEL =           0.0000                   WEL =           0.0000     WEL_0           
                RCHA =        5942.7675                  RCHA =        5942.7675     RCHA_0          
                 CHD =           0.0000                   CHD =           0.0000     CHD_0           
                 SFR =         295.0553                   SFR =         295.0553     SFR_0           

            TOTAL IN =        6237.8228              TOTAL IN =        6237.8228

          OUT:                                     OUT:
          ----                                     ----
                 WEL =        1905.1200                   WEL =        1905.1200     WEL_0           
                RCHA =           0.0000                  RCHA =           0.0000     RCHA_0          
                 CHD =         942.3350                   CHD =         942.3350     CHD_0           
                 SFR =        3390.3622                   SFR =        3390.3622     SFR_0           

           TOTAL OUT =        6237.8172             TOTAL OUT =        6237.8172

            IN - OUT =       5.5501E-03              IN - OUT =       5.5501E-03

 PERCENT DISCREPANCY =           0.00     PERCENT DISCREPANCY =           0.00




         TIME SUMMARY AT END OF TIME STEP    1 IN STRESS PERIOD    1
                    SECONDS     MINUTES      HOURS       DAYS        YEARS
                    -----------------------------------------------------------
   TIME STEP LENGTH  86400.      1440.0      24.000      1.0000     2.73785E-03
 STRESS PERIOD TIME  86400.      1440.0      24.000      1.0000     2.73785E-03
         TOTAL TIME  86400.      1440.0      24.000      1.0000     2.73785E-03


end timestep

